ADAYMJIUZHEBPP-UHFFFAOYSA-N
     RDKit          3D

 27 27  0  0  0  0  0  0  0  0999 V2000
  124.7375  122.0750   84.7830 C   0  0  0  0  0  0  0  0  0  0  0  0
  124.5249  121.9820   86.2707 C   0  0  0  0  0  0  0  0  0  0  0  0
  125.6189  121.9877   87.1559 C   0  0  0  0  0  0  0  0  0  0  0  0
  127.2468  122.1213   86.5851 Cl  0  0  0  0  0  0  0  0  0  0  0  0
  125.4297  121.8922   88.5381 C   0  0  0  0  0  0  0  0  0  0  0  0
  124.1447  121.7910   89.0609 C   0  0  0  0  0  0  0  0  0  0  0  0
  123.0512  121.7971   88.1990 C   0  0  0  0  0  0  0  0  0  0  0  0
  123.2266  121.9102   86.8120 C   0  0  0  0  0  0  0  0  0  0  0  0
  122.0914  121.9035   85.9858 N   0  0  0  0  0  0  0  0  0  0  0  0
  121.8499  122.9215   85.2165 C   0  0  0  0  0  0  0  0  0  0  0  0
  122.6329  124.0272   85.0801 N   0  0  0  0  0  0  0  0  0  0  0  0
  120.7491  122.9053   84.4072 N   0  0  0  0  0  0  0  0  0  0  0  0
  119.8356  123.8078   84.4969 C   0  0  0  0  0  0  0  0  0  0  0  0
  119.7552  124.8861   85.3116 N   0  0  0  0  0  0  0  0  0  0  0  0
  118.7557  123.7739   83.6808 N   0  0  0  0  0  0  0  0  0  0  0  0
  125.7279  122.5086   84.5805 H   0  0  0  0  0  0  0  0  0  0  0  0
  124.6800  121.0694   84.3408 H   0  0  0  0  0  0  0  0  0  0  0  0
  123.9597  122.7150   84.3408 H   0  0  0  0  0  0  0  0  0  0  0  0
  126.2983  121.8971   89.2130 H   0  0  0  0  0  0  0  0  0  0  0  0
  123.9935  121.7067   90.1472 H   0  0  0  0  0  0  0  0  0  0  0  0
  122.0351  121.7121   88.6117 H   0  0  0  0  0  0  0  0  0  0  0  0
  122.3501  124.7828   84.4398 H   0  0  0  0  0  0  0  0  0  0  0  0
  123.5080  124.1080   85.6173 H   0  0  0  0  0  0  0  0  0  0  0  0
  118.9429  125.5168   85.2526 H   0  0  0  0  0  0  0  0  0  0  0  0
  120.5062  125.0759   85.9904 H   0  0  0  0  0  0  0  0  0  0  0  0
  118.0287  124.4994   83.7582 H   0  0  0  0  0  0  0  0  0  0  0  0
  118.6613  123.0227   82.9825 H   0  0  0  0  0  0  0  0  0  0  0  0
  1  2  1  0
  2  3  2  0
  3  4  1  0
  3  5  1  0
  5  6  2  0
  6  7  1  0
  7  8  2  0
  8  9  1  0
  9 10  2  3
 10 11  1  0
 10 12  1  0
 12 13  2  3
 13 14  1  0
 13 15  1  0
  8  2  1  0
  1 16  1  0
  1 17  1  0
  1 18  1  0
  5 19  1  0
  6 20  1  0
  7 21  1  0
 11 22  1  0
 11 23  1  0
 14 24  1  0
 14 25  1  0
 15 26  1  0
 15 27  1  0
M  END
>  <loss>  (1) 
0.5411615371704102

>  <score>  (1) 
2.858067035675049

$$$$
ADAYMJIUZHEBPP-UHFFFAOYSA-N
     RDKit          3D

 27 27  0  0  0  0  0  0  0  0999 V2000
  125.3088  122.4265   84.8650 C   0  0  0  0  0  0  0  0  0  0  0  0
  124.8504  122.1511   86.2726 C   0  0  0  0  0  0  0  0  0  0  0  0
  125.7742  122.1047   87.3333 C   0  0  0  0  0  0  0  0  0  0  0  0
  127.4636  122.3772   87.0766 Cl  0  0  0  0  0  0  0  0  0  0  0  0
  125.3584  121.8420   88.6423 C   0  0  0  0  0  0  0  0  0  0  0  0
  124.0127  121.6205   88.9154 C   0  0  0  0  0  0  0  0  0  0  0  0
  123.0850  121.6732   87.8785 C   0  0  0  0  0  0  0  0  0  0  0  0
  123.4865  121.9538   86.5645 C   0  0  0  0  0  0  0  0  0  0  0  0
  122.5101  121.9860   85.5561 N   0  0  0  0  0  0  0  0  0  0  0  0
  121.4549  122.7282   85.7064 C   0  0  0  0  0  0  0  0  0  0  0  0
  121.1901  123.5318   86.7734 N   0  0  0  0  0  0  0  0  0  0  0  0
  120.4923  122.7487   84.7359 N   0  0  0  0  0  0  0  0  0  0  0  0
  120.0942  123.8410   84.1841 C   0  0  0  0  0  0  0  0  0  0  0  0
  119.1492  123.8137   83.2148 N   0  0  0  0  0  0  0  0  0  0  0  0
  120.4594  125.1222   84.4228 N   0  0  0  0  0  0  0  0  0  0  0  0
  126.2515  122.9927   84.8905 H   0  0  0  0  0  0  0  0  0  0  0  0
  125.4674  121.4740   84.3381 H   0  0  0  0  0  0  0  0  0  0  0  0
  124.5424  123.0138   84.3381 H   0  0  0  0  0  0  0  0  0  0  0  0
  126.0967  121.8104   89.4571 H   0  0  0  0  0  0  0  0  0  0  0  0
  123.6839  121.4054   89.9428 H   0  0  0  0  0  0  0  0  0  0  0  0
  122.0214  121.4920   88.0932 H   0  0  0  0  0  0  0  0  0  0  0  0
  120.3212  124.0842   86.7991 H   0  0  0  0  0  0  0  0  0  0  0  0
  121.8589  123.5873   87.5548 H   0  0  0  0  0  0  0  0  0  0  0  0
  118.8349  124.6915   82.7771 H   0  0  0  0  0  0  0  0  0  0  0  0
  118.7447  122.9151   82.9152 H   0  0  0  0  0  0  0  0  0  0  0  0
  120.0348  125.8883   83.8809 H   0  0  0  0  0  0  0  0  0  0  0  0
  121.1620  125.3312   85.1464 H   0  0  0  0  0  0  0  0  0  0  0  0
  1  2  1  0
  2  3  2  0
  3  4  1  0
  3  5  1  0
  5  6  2  0
  6  7  1  0
  7  8  2  0
  8  9  1  0
  9 10  2  3
 10 11  1  0
 10 12  1  0
 12 13  2  3
 13 14  1  0
 13 15  1  0
  8  2  1  0
  1 16  1  0
  1 17  1  0
  1 18  1  0
  5 19  1  0
  6 20  1  0
  7 21  1  0
 11 22  1  0
 11 23  1  0
 14 24  1  0
 14 25  1  0
 15 26  1  0
 15 27  1  0
M  END
>  <loss>  (2) 
0.5259533524513245

>  <score>  (2) 
2.70794939994812

$$$$
ADAYMJIUZHEBPP-UHFFFAOYSA-N
     RDKit          3D

 27 27  0  0  0  0  0  0  0  0999 V2000
  124.7627  122.1104   84.7846 C   0  0  0  0  0  0  0  0  0  0  0  0
  124.5507  122.0028   86.2715 C   0  0  0  0  0  0  0  0  0  0  0  0
  125.6449  122.0165   87.1564 C   0  0  0  0  0  0  0  0  0  0  0  0
  127.2706  122.1743   86.5853 Cl  0  0  0  0  0  0  0  0  0  0  0  0
  125.4579  121.9093   88.5380 C   0  0  0  0  0  0  0  0  0  0  0  0
  124.1748  121.7862   89.0606 C   0  0  0  0  0  0  0  0  0  0  0  0
  123.0811  121.7814   88.1990 C   0  0  0  0  0  0  0  0  0  0  0  0
  123.2538  121.9066   86.8130 C   0  0  0  0  0  0  0  0  0  0  0  0
  122.1165  121.8869   85.9898 N   0  0  0  0  0  0  0  0  0  0  0  0
  121.8849  122.8832   85.1895 C   0  0  0  0  0  0  0  0  0  0  0  0
  122.6712  123.9847   85.0385 N   0  0  0  0  0  0  0  0  0  0  0  0
  120.7692  122.8775   84.3995 N   0  0  0  0  0  0  0  0  0  0  0  0
  119.8862  123.8124   84.4484 C   0  0  0  0  0  0  0  0  0  0  0  0
  118.8037  123.7751   83.6360 N   0  0  0  0  0  0  0  0  0  0  0  0
  119.8204  124.9094   85.2384 N   0  0  0  0  0  0  0  0  0  0  0  0
  125.7276  122.5999   84.5863 H   0  0  0  0  0  0  0  0  0  0  0  0
  124.7640  121.1040   84.3407 H   0  0  0  0  0  0  0  0  0  0  0  0
  123.9513  122.7059   84.3407 H   0  0  0  0  0  0  0  0  0  0  0  0
  126.3267  121.9224   89.2126 H   0  0  0  0  0  0  0  0  0  0  0  0
  124.0252  121.6933   90.1465 H   0  0  0  0  0  0  0  0  0  0  0  0
  122.0666  121.6779   88.6116 H   0  0  0  0  0  0  0  0  0  0  0  0
  122.3999  124.7240   84.3746 H   0  0  0  0  0  0  0  0  0  0  0  0
  123.5372  124.0785   85.5881 H   0  0  0  0  0  0  0  0  0  0  0  0
  118.1006  124.5265   83.6801 H   0  0  0  0  0  0  0  0  0  0  0  0
  118.6833  122.9953   82.9740 H   0  0  0  0  0  0  0  0  0  0  0  0
  119.0316  125.5651   85.1447 H   0  0  0  0  0  0  0  0  0  0  0  0
  120.5592  125.0886   85.9335 H   0  0  0  0  0  0  0  0  0  0  0  0
  1  2  1  0
  2  3  2  0
  3  4  1  0
  3  5  1  0
  5  6  2  0
  6  7  1  0
  7  8  2  0
  8  9  1  0
  9 10  2  3
 10 11  1  0
 10 12  1  0
 12 13  2  3
 13 14  1  0
 13 15  1  0
  8  2  1  0
  1 16  1  0
  1 17  1  0
  1 18  1  0
  5 19  1  0
  6 20  1  0
  7 21  1  0
 11 22  1  0
 11 23  1  0
 14 24  1  0
 14 25  1  0
 15 26  1  0
 15 27  1  0
M  END
>  <loss>  (3) 
0.5505766272544861

>  <score>  (3) 
2.8051750659942627

$$$$
ADAYMJIUZHEBPP-UHFFFAOYSA-N
     RDKit          3D

 27 27  0  0  0  0  0  0  0  0999 V2000
  124.9094  123.2330   85.0728 C   0  0  0  0  0  0  0  0  0  0  0  0
  124.5307  122.5456   86.3568 C   0  0  0  0  0  0  0  0  0  0  0  0
  125.4435  121.7224   87.0409 C   0  0  0  0  0  0  0  0  0  0  0  0
  127.0374  121.4290   86.4348 Cl  0  0  0  0  0  0  0  0  0  0  0  0
  125.0908  121.0956   88.2408 C   0  0  0  0  0  0  0  0  0  0  0  0
  123.8199  121.2764   88.7765 C   0  0  0  0  0  0  0  0  0  0  0  0
  122.8972  122.0674   88.0976 C   0  0  0  0  0  0  0  0  0  0  0  0
  123.2298  122.6806   86.8808 C   0  0  0  0  0  0  0  0  0  0  0  0
  122.2477  123.4489   86.2379 N   0  0  0  0  0  0  0  0  0  0  0  0
  121.7474  123.0416   85.1172 C   0  0  0  0  0  0  0  0  0  0  0  0
  122.0515  121.8925   84.4492 N   0  0  0  0  0  0  0  0  0  0  0  0
  120.7813  123.8289   84.5716 N   0  0  0  0  0  0  0  0  0  0  0  0
  119.6821  123.2698   84.2043 C   0  0  0  0  0  0  0  0  0  0  0  0
  118.7058  124.0068   83.6237 N   0  0  0  0  0  0  0  0  0  0  0  0
  119.2829  121.9796   84.3027 N   0  0  0  0  0  0  0  0  0  0  0  0
  125.4287  124.1755   85.3007 H   0  0  0  0  0  0  0  0  0  0  0  0
  125.5749  122.5795   84.4895 H   0  0  0  0  0  0  0  0  0  0  0  0
  124.0015  123.4463   84.4895 H   0  0  0  0  0  0  0  0  0  0  0  0
  125.8203  120.4581   88.7619 H   0  0  0  0  0  0  0  0  0  0  0  0
  123.5463  120.7984   89.7287 H   0  0  0  0  0  0  0  0  0  0  0  0
  121.8928  122.2135   88.5216 H   0  0  0  0  0  0  0  0  0  0  0  0
  121.5828  121.6754   83.5581 H   0  0  0  0  0  0  0  0  0  0  0  0
  122.7500  121.2415   84.8356 H   0  0  0  0  0  0  0  0  0  0  0  0
  117.8267  123.5574   83.3304 H   0  0  0  0  0  0  0  0  0  0  0  0
  118.8423  125.0169   83.4753 H   0  0  0  0  0  0  0  0  0  0  0  0
  118.3559  121.6992   83.9521 H   0  0  0  0  0  0  0  0  0  0  0  0
  119.9063  121.2787   84.7281 H   0  0  0  0  0  0  0  0  0  0  0  0
  1  2  1  0
  2  3  2  0
  3  4  1  0
  3  5  1  0
  5  6  2  0
  6  7  1  0
  7  8  2  0
  8  9  1  0
  9 10  2  3
 10 11  1  0
 10 12  1  0
 12 13  2  3
 13 14  1  0
 13 15  1  0
  8  2  1  0
  1 16  1  0
  1 17  1  0
  1 18  1  0
  5 19  1  0
  6 20  1  0
  7 21  1  0
 11 22  1  0
 11 23  1  0
 14 24  1  0
 14 25  1  0
 15 26  1  0
 15 27  1  0
M  END
>  <loss>  (4) 
0.5405094027519226

>  <score>  (4) 
2.678262233734131

$$$$
ADAYMJIUZHEBPP-UHFFFAOYSA-N
     RDKit          3D

 27 27  0  0  0  0  0  0  0  0999 V2000
  124.6930  122.0609   84.7555 C   0  0  0  0  0  0  0  0  0  0  0  0
  124.5197  121.9702   86.2485 C   0  0  0  0  0  0  0  0  0  0  0  0
  125.6365  121.9936   87.1045 C   0  0  0  0  0  0  0  0  0  0  0  0
  127.2468  122.1446   86.4897 Cl  0  0  0  0  0  0  0  0  0  0  0  0
  125.4854  121.9021   88.4916 C   0  0  0  0  0  0  0  0  0  0  0  0
  124.2163  121.7851   89.0487 C   0  0  0  0  0  0  0  0  0  0  0  0
  123.1006  121.7708   88.2159 C   0  0  0  0  0  0  0  0  0  0  0  0
  123.2373  121.8803   86.8245 C   0  0  0  0  0  0  0  0  0  0  0  0
  122.0790  121.8514   86.0314 N   0  0  0  0  0  0  0  0  0  0  0  0
  121.7730  122.8822   85.3028 C   0  0  0  0  0  0  0  0  0  0  0  0
  122.4966  124.0314   85.2025 N   0  0  0  0  0  0  0  0  0  0  0  0
  120.6365  122.8664   84.5432 N   0  0  0  0  0  0  0  0  0  0  0  0
  119.8867  123.9031   84.4044 C   0  0  0  0  0  0  0  0  0  0  0  0
  118.7781  123.8475   83.6291 N   0  0  0  0  0  0  0  0  0  0  0  0
  119.9964  125.1378   84.9478 N   0  0  0  0  0  0  0  0  0  0  0  0
  125.6463  122.5597   84.5267 H   0  0  0  0  0  0  0  0  0  0  0  0
  124.6961  121.0488   84.3245 H   0  0  0  0  0  0  0  0  0  0  0  0
  123.8633  122.6404   84.3245 H   0  0  0  0  0  0  0  0  0  0  0  0
  126.3714  121.9226   89.1432 H   0  0  0  0  0  0  0  0  0  0  0  0
  124.0950  121.7045   90.1390 H   0  0  0  0  0  0  0  0  0  0  0  0
  122.0972  121.6721   88.6557 H   0  0  0  0  0  0  0  0  0  0  0  0
  122.1682  124.7953   84.5946 H   0  0  0  0  0  0  0  0  0  0  0  0
  123.3723  124.1367   85.7344 H   0  0  0  0  0  0  0  0  0  0  0  0
  118.1822  124.6808   83.5222 H   0  0  0  0  0  0  0  0  0  0  0  0
  118.5306  122.9720   83.1464 H   0  0  0  0  0  0  0  0  0  0  0  0
  119.2977  125.8616   84.7270 H   0  0  0  0  0  0  0  0  0  0  0  0
  120.7787  125.3536   85.5822 H   0  0  0  0  0  0  0  0  0  0  0  0
  1  2  1  0
  2  3  2  0
  3  4  1  0
  3  5  1  0
  5  6  2  0
  6  7  1  0
  7  8  2  0
  8  9  1  0
  9 10  2  3
 10 11  1  0
 10 12  1  0
 12 13  2  3
 13 14  1  0
 13 15  1  0
  8  2  1  0
  1 16  1  0
  1 17  1  0
  1 18  1  0
  5 19  1  0
  6 20  1  0
  7 21  1  0
 11 22  1  0
 11 23  1  0
 14 24  1  0
 14 25  1  0
 15 26  1  0
 15 27  1  0
M  END
>  <loss>  (5) 
0.5815207362174988

>  <score>  (5) 
2.8211238384246826

$$$$
ADAYMJIUZHEBPP-UHFFFAOYSA-N
     RDKit          3D

 27 27  0  0  0  0  0  0  0  0999 V2000
  125.2858  122.7615   84.8916 C   0  0  0  0  0  0  0  0  0  0  0  0
  124.7629  122.3426   86.2391 C   0  0  0  0  0  0  0  0  0  0  0  0
  125.5512  121.5861   87.1251 C   0  0  0  0  0  0  0  0  0  0  0  0
  127.1494  121.0697   86.7090 Cl  0  0  0  0  0  0  0  0  0  0  0  0
  125.0651  121.2098   88.3818 C   0  0  0  0  0  0  0  0  0  0  0  0
  123.7826  121.5788   88.7742 C   0  0  0  0  0  0  0  0  0  0  0  0
  122.9813  122.3053   87.8980 C   0  0  0  0  0  0  0  0  0  0  0  0
  123.4473  122.6669   86.6254 C   0  0  0  0  0  0  0  0  0  0  0  0
  122.5825  123.3821   85.7835 N   0  0  0  0  0  0  0  0  0  0  0  0
  121.3487  123.0123   85.6690 C   0  0  0  0  0  0  0  0  0  0  0  0
  120.7382  121.9729   86.3064 N   0  0  0  0  0  0  0  0  0  0  0  0
  120.5686  123.7737   84.8550 N   0  0  0  0  0  0  0  0  0  0  0  0
  119.8242  123.1718   83.9952 C   0  0  0  0  0  0  0  0  0  0  0  0
  119.0577  123.8889   83.1399 N   0  0  0  0  0  0  0  0  0  0  0  0
  119.6437  121.8487   83.7705 N   0  0  0  0  0  0  0  0  0  0  0  0
  126.1380  123.4441   85.0250 H   0  0  0  0  0  0  0  0  0  0  0  0
  125.6123  121.8723   84.3324 H   0  0  0  0  0  0  0  0  0  0  0  0
  124.4893  123.2743   84.3324 H   0  0  0  0  0  0  0  0  0  0  0  0
  125.6986  120.6207   89.0612 H   0  0  0  0  0  0  0  0  0  0  0  0
  123.4048  121.2987   89.7686 H   0  0  0  0  0  0  0  0  0  0  0  0
  121.9679  122.6002   88.2081 H   0  0  0  0  0  0  0  0  0  0  0  0
  119.7424  121.7753   86.1323 H   0  0  0  0  0  0  0  0  0  0  0  0
  121.2728  121.3854   86.9621 H   0  0  0  0  0  0  0  0  0  0  0  0
  118.4625  123.4051   82.4524 H   0  0  0  0  0  0  0  0  0  0  0  0
  119.0697  124.9182   83.1768 H   0  0  0  0  0  0  0  0  0  0  0  0
  119.0001  121.5352   83.0300 H   0  0  0  0  0  0  0  0  0  0  0  0
  120.1499  121.1558   84.3402 H   0  0  0  0  0  0  0  0  0  0  0  0
  1  2  1  0
  2  3  2  0
  3  4  1  0
  3  5  1  0
  5  6  2  0
  6  7  1  0
  7  8  2  0
  8  9  1  0
  9 10  2  3
 10 11  1  0
 10 12  1  0
 12 13  2  3
 13 14  1  0
 13 15  1  0
  8  2  1  0
  1 16  1  0
  1 17  1  0
  1 18  1  0
  5 19  1  0
  6 20  1  0
  7 21  1  0
 11 22  1  0
 11 23  1  0
 14 24  1  0
 14 25  1  0
 15 26  1  0
 15 27  1  0
M  END
>  <loss>  (6) 
0.5450677275657654

>  <score>  (6) 
2.6264395713806152

$$$$
ADAYMJIUZHEBPP-UHFFFAOYSA-N
     RDKit          3D

 27 27  0  0  0  0  0  0  0  0999 V2000
  124.7466  122.0464   84.7520 C   0  0  0  0  0  0  0  0  0  0  0  0
  124.5609  121.9710   86.2443 C   0  0  0  0  0  0  0  0  0  0  0  0
  125.6691  122.0132   87.1106 C   0  0  0  0  0  0  0  0  0  0  0  0
  127.2841  122.1728   86.5104 Cl  0  0  0  0  0  0  0  0  0  0  0  0
  125.5050  121.9342   88.4971 C   0  0  0  0  0  0  0  0  0  0  0  0
  124.2314  121.8135   89.0430 C   0  0  0  0  0  0  0  0  0  0  0  0
  123.1238  121.7836   88.1998 C   0  0  0  0  0  0  0  0  0  0  0  0
  123.2736  121.8797   86.8085 C   0  0  0  0  0  0  0  0  0  0  0  0
  122.1252  121.8365   86.0019 N   0  0  0  0  0  0  0  0  0  0  0  0
  121.7980  122.8743   85.2929 C   0  0  0  0  0  0  0  0  0  0  0  0
  122.4992  124.0381   85.2038 N   0  0  0  0  0  0  0  0  0  0  0  0
  120.6849  122.8232   84.5022 N   0  0  0  0  0  0  0  0  0  0  0  0
  119.9230  123.8491   84.3470 C   0  0  0  0  0  0  0  0  0  0  0  0
  120.0316  125.0985   84.8572 N   0  0  0  0  0  0  0  0  0  0  0  0
  118.8276  123.7761   83.5543 N   0  0  0  0  0  0  0  0  0  0  0  0
  125.7441  122.4516   84.5266 H   0  0  0  0  0  0  0  0  0  0  0  0
  124.6537  121.0393   84.3195 H   0  0  0  0  0  0  0  0  0  0  0  0
  123.9776  122.7035   84.3195 H   0  0  0  0  0  0  0  0  0  0  0  0
  126.3845  121.9676   89.1569 H   0  0  0  0  0  0  0  0  0  0  0  0
  124.1002  121.7422   90.1328 H   0  0  0  0  0  0  0  0  0  0  0  0
  122.1168  121.6831   88.6309 H   0  0  0  0  0  0  0  0  0  0  0  0
  122.1516  124.8046   84.6101 H   0  0  0  0  0  0  0  0  0  0  0  0
  123.3773  124.1520   85.7302 H   0  0  0  0  0  0  0  0  0  0  0  0
  119.3240  125.8112   84.6291 H   0  0  0  0  0  0  0  0  0  0  0  0
  120.8220  125.3362   85.4734 H   0  0  0  0  0  0  0  0  0  0  0  0
  118.2225  124.6011   83.4349 H   0  0  0  0  0  0  0  0  0  0  0  0
  118.5995  122.8958   83.0708 H   0  0  0  0  0  0  0  0  0  0  0  0
  1  2  1  0
  2  3  2  0
  3  4  1  0
  3  5  1  0
  5  6  2  0
  6  7  1  0
  7  8  2  0
  8  9  1  0
  9 10  2  3
 10 11  1  0
 10 12  1  0
 12 13  2  3
 13 14  1  0
 13 15  1  0
  8  2  1  0
  1 16  1  0
  1 17  1  0
  1 18  1  0
  5 19  1  0
  6 20  1  0
  7 21  1  0
 11 22  1  0
 11 23  1  0
 14 24  1  0
 14 25  1  0
 15 26  1  0
 15 27  1  0
M  END
>  <loss>  (7) 
0.5873680710792542

>  <score>  (7) 
2.811859130859375

$$$$
ADAYMJIUZHEBPP-UHFFFAOYSA-N
     RDKit          3D

 27 27  0  0  0  0  0  0  0  0999 V2000
  124.9271  123.1415   85.0226 C   0  0  0  0  0  0  0  0  0  0  0  0
  124.5347  122.5087   86.3303 C   0  0  0  0  0  0  0  0  0  0  0  0
  125.4189  121.6658   87.0278 C   0  0  0  0  0  0  0  0  0  0  0  0
  126.9906  121.2848   86.4126 Cl  0  0  0  0  0  0  0  0  0  0  0  0
  125.0540  121.0899   88.2494 C   0  0  0  0  0  0  0  0  0  0  0  0
  123.7991  121.3421   88.7938 C   0  0  0  0  0  0  0  0  0  0  0  0
  122.9037  122.1534   88.1026 C   0  0  0  0  0  0  0  0  0  0  0  0
  123.2476  122.7162   86.8648 C   0  0  0  0  0  0  0  0  0  0  0  0
  122.2923  123.5085   86.2108 N   0  0  0  0  0  0  0  0  0  0  0  0
  121.6843  123.0481   85.1665 C   0  0  0  0  0  0  0  0  0  0  0  0
  121.8443  121.8204   84.5952 N   0  0  0  0  0  0  0  0  0  0  0  0
  120.7531  123.8666   84.6064 N   0  0  0  0  0  0  0  0  0  0  0  0
  119.6083  123.3625   84.3049 C   0  0  0  0  0  0  0  0  0  0  0  0
  118.6625  124.1296   83.7130 N   0  0  0  0  0  0  0  0  0  0  0  0
  119.1302  122.1089   84.4886 N   0  0  0  0  0  0  0  0  0  0  0  0
  125.4977  124.0616   85.2171 H   0  0  0  0  0  0  0  0  0  0  0  0
  125.5485  122.4394   84.4473 H   0  0  0  0  0  0  0  0  0  0  0  0
  124.0219  123.3861   84.4473 H   0  0  0  0  0  0  0  0  0  0  0  0
  125.7612  120.4359   88.7806 H   0  0  0  0  0  0  0  0  0  0  0  0
  123.5167  120.9042   89.7626 H   0  0  0  0  0  0  0  0  0  0  0  0
  121.9120  122.3561   88.5334 H   0  0  0  0  0  0  0  0  0  0  0  0
  121.2994  121.5665   83.7588 H   0  0  0  0  0  0  0  0  0  0  0  0
  122.5101  121.1468   85.0001 H   0  0  0  0  0  0  0  0  0  0  0  0
  117.7468  123.7241   83.4725 H   0  0  0  0  0  0  0  0  0  0  0  0
  118.8588  125.1188   83.5034 H   0  0  0  0  0  0  0  0  0  0  0  0
  118.1757  121.8718   84.1827 H   0  0  0  0  0  0  0  0  0  0  0  0
  119.7212  121.3925   84.9341 H   0  0  0  0  0  0  0  0  0  0  0  0
  1  2  1  0
  2  3  2  0
  3  4  1  0
  3  5  1  0
  5  6  2  0
  6  7  1  0
  7  8  2  0
  8  9  1  0
  9 10  2  3
 10 11  1  0
 10 12  1  0
 12 13  2  3
 13 14  1  0
 13 15  1  0
  8  2  1  0
  1 16  1  0
  1 17  1  0
  1 18  1  0
  5 19  1  0
  6 20  1  0
  7 21  1  0
 11 22  1  0
 11 23  1  0
 14 24  1  0
 14 25  1  0
 15 26  1  0
 15 27  1  0
M  END
>  <loss>  (8) 
0.5629181861877441

>  <score>  (8) 
2.6807258129119873

$$$$
ADAYMJIUZHEBPP-UHFFFAOYSA-N
     RDKit          3D

 27 27  0  0  0  0  0  0  0  0999 V2000
  125.2799  122.3398   84.8485 C   0  0  0  0  0  0  0  0  0  0  0  0
  124.8458  122.1068   86.2713 C   0  0  0  0  0  0  0  0  0  0  0  0
  125.7827  122.1209   87.3212 C   0  0  0  0  0  0  0  0  0  0  0  0
  127.4619  122.4243   87.0345 Cl  0  0  0  0  0  0  0  0  0  0  0  0
  125.3884  121.8960   88.6439 C   0  0  0  0  0  0  0  0  0  0  0  0
  124.0512  121.6547   88.9416 C   0  0  0  0  0  0  0  0  0  0  0  0
  123.1101  121.6505   87.9155 C   0  0  0  0  0  0  0  0  0  0  0  0
  123.4901  121.8921   86.5871 C   0  0  0  0  0  0  0  0  0  0  0  0
  122.5035  121.8690   85.5885 N   0  0  0  0  0  0  0  0  0  0  0  0
  121.5145  122.7090   85.6420 C   0  0  0  0  0  0  0  0  0  0  0  0
  121.3410  123.6851   86.5754 N   0  0  0  0  0  0  0  0  0  0  0  0
  120.5625  122.6885   84.6620 N   0  0  0  0  0  0  0  0  0  0  0  0
  120.0910  123.7760   84.1602 C   0  0  0  0  0  0  0  0  0  0  0  0
  120.3984  125.0657   84.4348 N   0  0  0  0  0  0  0  0  0  0  0  0
  119.1514  123.7309   83.1862 N   0  0  0  0  0  0  0  0  0  0  0  0
  126.2490  122.8602   84.8413 H   0  0  0  0  0  0  0  0  0  0  0  0
  125.3788  121.3735   84.3323 H   0  0  0  0  0  0  0  0  0  0  0  0
  124.5291  122.9561   84.3323 H   0  0  0  0  0  0  0  0  0  0  0  0
  126.1367  121.9100   89.4500 H   0  0  0  0  0  0  0  0  0  0  0  0
  123.7397  121.4686   89.9800 H   0  0  0  0  0  0  0  0  0  0  0  0
  122.0534  121.4548   88.1499 H   0  0  0  0  0  0  0  0  0  0  0  0
  120.5177  124.3022   86.5283 H   0  0  0  0  0  0  0  0  0  0  0  0
  122.0331  123.8064   87.3285 H   0  0  0  0  0  0  0  0  0  0  0  0
  119.9191  125.8273   83.9337 H   0  0  0  0  0  0  0  0  0  0  0  0
  121.1115  125.2851   85.1448 H   0  0  0  0  0  0  0  0  0  0  0  0
  118.7786  124.6052   82.7893 H   0  0  0  0  0  0  0  0  0  0  0  0
  118.8095  122.8222   82.8422 H   0  0  0  0  0  0  0  0  0  0  0  0
  1  2  1  0
  2  3  2  0
  3  4  1  0
  3  5  1  0
  5  6  2  0
  6  7  1  0
  7  8  2  0
  8  9  1  0
  9 10  2  3
 10 11  1  0
 10 12  1  0
 12 13  2  3
 13 14  1  0
 13 15  1  0
  8  2  1  0
  1 16  1  0
  1 17  1  0
  1 18  1  0
  5 19  1  0
  6 20  1  0
  7 21  1  0
 11 22  1  0
 11 23  1  0
 14 24  1  0
 14 25  1  0
 15 26  1  0
 15 27  1  0
M  END
>  <loss>  (9) 
0.5640353560447693

>  <score>  (9) 
2.645446300506592

$$$$
ADAYMJIUZHEBPP-UHFFFAOYSA-N
     RDKit          3D

 27 27  0  0  0  0  0  0  0  0999 V2000
  123.6297  120.4073   90.3143 C   0  0  0  0  0  0  0  0  0  0  0  0
  123.0348  121.1780   89.1661 C   0  0  0  0  0  0  0  0  0  0  0  0
  121.7263  121.6887   89.2495 C   0  0  0  0  0  0  0  0  0  0  0  0
  120.7393  121.4327   90.6480 Cl  0  0  0  0  0  0  0  0  0  0  0  0
  121.1676  122.4253   88.1993 C   0  0  0  0  0  0  0  0  0  0  0  0
  121.9105  122.6722   87.0508 C   0  0  0  0  0  0  0  0  0  0  0  0
  123.2035  122.1673   86.9505 C   0  0  0  0  0  0  0  0  0  0  0  0
  123.7664  121.4045   87.9843 C   0  0  0  0  0  0  0  0  0  0  0  0
  125.0871  120.9504   87.8126 N   0  0  0  0  0  0  0  0  0  0  0  0
  125.7878  121.3854   86.8082 C   0  0  0  0  0  0  0  0  0  0  0  0
  127.0537  120.9190   86.6511 N   0  0  0  0  0  0  0  0  0  0  0  0
  125.2869  122.2459   85.8808 N   0  0  0  0  0  0  0  0  0  0  0  0
  125.9212  122.3765   84.7690 C   0  0  0  0  0  0  0  0  0  0  0  0
  127.0361  121.7503   84.3245 N   0  0  0  0  0  0  0  0  0  0  0  0
  125.4779  123.2435   83.8288 N   0  0  0  0  0  0  0  0  0  0  0  0
  123.2913  120.8457   91.2647 H   0  0  0  0  0  0  0  0  0  0  0  0
  123.3053  119.3577   90.2585 H   0  0  0  0  0  0  0  0  0  0  0  0
  124.7272  120.4553   90.2585 H   0  0  0  0  0  0  0  0  0  0  0  0
  120.1401  122.8092   88.2827 H   0  0  0  0  0  0  0  0  0  0  0  0
  121.4800  123.2618   86.2279 H   0  0  0  0  0  0  0  0  0  0  0  0
  123.7941  122.3699   86.0449 H   0  0  0  0  0  0  0  0  0  0  0  0
  127.6297  121.2481   85.8631 H   0  0  0  0  0  0  0  0  0  0  0  0
  127.4378  120.2363   87.3198 H   0  0  0  0  0  0  0  0  0  0  0  0
  127.4179  121.9765   83.3950 H   0  0  0  0  0  0  0  0  0  0  0  0
  127.5025  121.0476   84.9158 H   0  0  0  0  0  0  0  0  0  0  0  0
  125.9887  123.3451   82.9401 H   0  0  0  0  0  0  0  0  0  0  0  0
  124.6298  123.8018   84.0020 H   0  0  0  0  0  0  0  0  0  0  0  0
  1  2  1  0
  2  3  2  0
  3  4  1  0
  3  5  1  0
  5  6  2  0
  6  7  1  0
  7  8  2  0
  8  9  1  0
  9 10  2  3
 10 11  1  0
 10 12  1  0
 12 13  2  3
 13 14  1  0
 13 15  1  0
  8  2  1  0
  1 16  1  0
  1 17  1  0
  1 18  1  0
  5 19  1  0
  6 20  1  0
  7 21  1  0
 11 22  1  0
 11 23  1  0
 14 24  1  0
 14 25  1  0
 15 26  1  0
 15 27  1  0
M  END
>  <loss>  (10) 
0.6666436791419983

>  <score>  (10) 
2.9662835597991943

$$$$
ADAYMJIUZHEBPP-UHFFFAOYSA-N
     RDKit          3D

 27 27  0  0  0  0  0  0  0  0999 V2000
  124.5730  120.8074   89.4394 C   0  0  0  0  0  0  0  0  0  0  0  0
  123.3635  121.4065   88.7738 C   0  0  0  0  0  0  0  0  0  0  0  0
  122.0957  121.3551   89.3810 C   0  0  0  0  0  0  0  0  0  0  0  0
  121.8470  120.5785   90.9072 Cl  0  0  0  0  0  0  0  0  0  0  0  0
  120.9766  121.9245   88.7640 C   0  0  0  0  0  0  0  0  0  0  0  0
  121.1030  122.5514   87.5288 C   0  0  0  0  0  0  0  0  0  0  0  0
  122.3462  122.5875   86.9036 C   0  0  0  0  0  0  0  0  0  0  0  0
  123.4708  121.9980   87.4996 C   0  0  0  0  0  0  0  0  0  0  0  0
  124.6901  122.0524   86.8078 N   0  0  0  0  0  0  0  0  0  0  0  0
  124.7201  122.5044   85.5967 C   0  0  0  0  0  0  0  0  0  0  0  0
  123.6690  122.9777   84.8683 N   0  0  0  0  0  0  0  0  0  0  0  0
  125.9443  122.5502   85.0049 N   0  0  0  0  0  0  0  0  0  0  0  0
  126.4015  121.4693   84.4774 C   0  0  0  0  0  0  0  0  0  0  0  0
  127.6302  121.4576   83.9087 N   0  0  0  0  0  0  0  0  0  0  0  0
  125.8368  120.2432   84.3698 N   0  0  0  0  0  0  0  0  0  0  0  0
  124.4567  120.8651   90.5317 H   0  0  0  0  0  0  0  0  0  0  0  0
  124.6746  119.7549   89.1365 H   0  0  0  0  0  0  0  0  0  0  0  0
  125.4718  121.3645   89.1365 H   0  0  0  0  0  0  0  0  0  0  0  0
  119.9944  121.8763   89.2569 H   0  0  0  0  0  0  0  0  0  0  0  0
  120.2278  123.0148   87.0500 H   0  0  0  0  0  0  0  0  0  0  0  0
  122.4481  123.0854   85.9280 H   0  0  0  0  0  0  0  0  0  0  0  0
  123.8188  123.3130   83.9060 H   0  0  0  0  0  0  0  0  0  0  0  0
  122.7253  123.0000   85.2805 H   0  0  0  0  0  0  0  0  0  0  0  0
  127.9943  120.5913   83.4870 H   0  0  0  0  0  0  0  0  0  0  0  0
  128.2007  122.3151   83.8977 H   0  0  0  0  0  0  0  0  0  0  0  0
  126.3508  119.4781   83.9102 H   0  0  0  0  0  0  0  0  0  0  0  0
  124.8933  120.0758   84.7474 H   0  0  0  0  0  0  0  0  0  0  0  0
  1  2  1  0
  2  3  2  0
  3  4  1  0
  3  5  1  0
  5  6  2  0
  6  7  1  0
  7  8  2  0
  8  9  1  0
  9 10  2  3
 10 11  1  0
 10 12  1  0
 12 13  2  3
 13 14  1  0
 13 15  1  0
  8  2  1  0
  1 16  1  0
  1 17  1  0
  1 18  1  0
  5 19  1  0
  6 20  1  0
  7 21  1  0
 11 22  1  0
 11 23  1  0
 14 24  1  0
 14 25  1  0
 15 26  1  0
 15 27  1  0
M  END
>  <loss>  (11) 
0.6678838729858398

>  <score>  (11) 
2.8946259021759033

$$$$
ADAYMJIUZHEBPP-UHFFFAOYSA-N
     RDKit          3D

 27 27  0  0  0  0  0  0  0  0999 V2000
  124.5963  120.8510   89.4219 C   0  0  0  0  0  0  0  0  0  0  0  0
  123.3760  121.4310   88.7593 C   0  0  0  0  0  0  0  0  0  0  0  0
  122.1127  121.3709   89.3752 C   0  0  0  0  0  0  0  0  0  0  0  0
  121.8826  120.6046   90.9094 Cl  0  0  0  0  0  0  0  0  0  0  0  0
  120.9835  121.9226   88.7607 C   0  0  0  0  0  0  0  0  0  0  0  0
  121.0949  122.5403   87.5194 C   0  0  0  0  0  0  0  0  0  0  0  0
  122.3336  122.5847   86.8858 C   0  0  0  0  0  0  0  0  0  0  0  0
  123.4685  122.0128   87.4794 C   0  0  0  0  0  0  0  0  0  0  0  0
  124.6826  122.0747   86.7792 N   0  0  0  0  0  0  0  0  0  0  0  0
  124.7012  122.5253   85.5673 C   0  0  0  0  0  0  0  0  0  0  0  0
  123.6419  122.9905   84.8456 N   0  0  0  0  0  0  0  0  0  0  0  0
  125.9209  122.5788   84.9671 N   0  0  0  0  0  0  0  0  0  0  0  0
  126.3888  121.4967   84.4515 C   0  0  0  0  0  0  0  0  0  0  0  0
  127.6140  121.4931   83.8751 N   0  0  0  0  0  0  0  0  0  0  0  0
  125.8395  120.2621   84.3643 N   0  0  0  0  0  0  0  0  0  0  0  0
  124.4812  120.9057   90.5145 H   0  0  0  0  0  0  0  0  0  0  0  0
  124.7143  119.8005   89.1178 H   0  0  0  0  0  0  0  0  0  0  0  0
  125.4854  121.4229   89.1178 H   0  0  0  0  0  0  0  0  0  0  0  0
  120.0051  121.8678   89.2605 H   0  0  0  0  0  0  0  0  0  0  0  0
  120.2116  122.9900   87.0425 H   0  0  0  0  0  0  0  0  0  0  0  0
  122.4237  123.0754   85.9054 H   0  0  0  0  0  0  0  0  0  0  0  0
  123.7827  123.3256   83.8819 H   0  0  0  0  0  0  0  0  0  0  0  0
  122.7009  123.0067   85.2642 H   0  0  0  0  0  0  0  0  0  0  0  0
  127.9867  120.6258   83.4629 H   0  0  0  0  0  0  0  0  0  0  0  0
  128.1733  122.3576   83.8487 H   0  0  0  0  0  0  0  0  0  0  0  0
  126.3605  119.4974   83.9119 H   0  0  0  0  0  0  0  0  0  0  0  0
  124.9006  120.0877   84.7503 H   0  0  0  0  0  0  0  0  0  0  0  0
  1  2  1  0
  2  3  2  0
  3  4  1  0
  3  5  1  0
  5  6  2  0
  6  7  1  0
  7  8  2  0
  8  9  1  0
  9 10  2  3
 10 11  1  0
 10 12  1  0
 12 13  2  3
 13 14  1  0
 13 15  1  0
  8  2  1  0
  1 16  1  0
  1 17  1  0
  1 18  1  0
  5 19  1  0
  6 20  1  0
  7 21  1  0
 11 22  1  0
 11 23  1  0
 14 24  1  0
 14 25  1  0
 15 26  1  0
 15 27  1  0
M  END
>  <loss>  (12) 
0.6671340465545654

>  <score>  (12) 
2.870513916015625

$$$$
ADAYMJIUZHEBPP-UHFFFAOYSA-N
     RDKit          3D

 27 27  0  0  0  0  0  0  0  0999 V2000
  124.5266  120.7683   89.4606 C   0  0  0  0  0  0  0  0  0  0  0  0
  123.3323  121.3821   88.7793 C   0  0  0  0  0  0  0  0  0  0  0  0
  122.0698  121.3812   89.4008 C   0  0  0  0  0  0  0  0  0  0  0  0
  121.8333  120.6991   90.9733 Cl  0  0  0  0  0  0  0  0  0  0  0  0
  120.9543  121.9410   88.7702 C   0  0  0  0  0  0  0  0  0  0  0  0
  121.0802  122.5131   87.5086 C   0  0  0  0  0  0  0  0  0  0  0  0
  122.3254  122.5334   86.8860 C   0  0  0  0  0  0  0  0  0  0  0  0
  123.4555  121.9911   87.5153 C   0  0  0  0  0  0  0  0  0  0  0  0
  124.6865  122.0298   86.8413 N   0  0  0  0  0  0  0  0  0  0  0  0
  124.7455  122.5129   85.6373 C   0  0  0  0  0  0  0  0  0  0  0  0
  123.7092  123.0527   84.9381 N   0  0  0  0  0  0  0  0  0  0  0  0
  125.9480  122.5571   84.9898 N   0  0  0  0  0  0  0  0  0  0  0  0
  126.4814  121.4978   84.4896 C   0  0  0  0  0  0  0  0  0  0  0  0
  126.0273  120.2225   84.4675 N   0  0  0  0  0  0  0  0  0  0  0  0
  127.6718  121.5670   83.8479 N   0  0  0  0  0  0  0  0  0  0  0  0
  124.4001  120.8333   90.5514 H   0  0  0  0  0  0  0  0  0  0  0  0
  124.6155  119.7127   89.1641 H   0  0  0  0  0  0  0  0  0  0  0  0
  125.4367  121.3103   89.1641 H   0  0  0  0  0  0  0  0  0  0  0  0
  119.9758  121.9290   89.2726 H   0  0  0  0  0  0  0  0  0  0  0  0
  120.2025  122.9461   87.0065 H   0  0  0  0  0  0  0  0  0  0  0  0
  122.4243  122.9813   85.8862 H   0  0  0  0  0  0  0  0  0  0  0  0
  123.8621  123.4097   83.9841 H   0  0  0  0  0  0  0  0  0  0  0  0
  122.7724  123.1040   85.3631 H   0  0  0  0  0  0  0  0  0  0  0  0
  126.5878  119.4839   84.0190 H   0  0  0  0  0  0  0  0  0  0  0  0
  125.1213  119.9909   84.8993 H   0  0  0  0  0  0  0  0  0  0  0  0
  128.0926  120.7152   83.4501 H   0  0  0  0  0  0  0  0  0  0  0  0
  128.1563  122.4714   83.7576 H   0  0  0  0  0  0  0  0  0  0  0  0
  1  2  1  0
  2  3  2  0
  3  4  1  0
  3  5  1  0
  5  6  2  0
  6  7  1  0
  7  8  2  0
  8  9  1  0
  9 10  2  3
 10 11  1  0
 10 12  1  0
 12 13  2  3
 13 14  1  0
 13 15  1  0
  8  2  1  0
  1 16  1  0
  1 17  1  0
  1 18  1  0
  5 19  1  0
  6 20  1  0
  7 21  1  0
 11 22  1  0
 11 23  1  0
 14 24  1  0
 14 25  1  0
 15 26  1  0
 15 27  1  0
M  END
>  <loss>  (13) 
0.6623411178588867

>  <score>  (13) 
2.7891573905944824

$$$$
ADAYMJIUZHEBPP-UHFFFAOYSA-N
     RDKit          3D

 27 27  0  0  0  0  0  0  0  0999 V2000
  124.5062  120.7358   89.4536 C   0  0  0  0  0  0  0  0  0  0  0  0
  123.3233  121.3715   88.7725 C   0  0  0  0  0  0  0  0  0  0  0  0
  122.0568  121.3772   89.3859 C   0  0  0  0  0  0  0  0  0  0  0  0
  121.8025  120.6782   90.9482 Cl  0  0  0  0  0  0  0  0  0  0  0  0
  120.9518  121.9573   88.7552 C   0  0  0  0  0  0  0  0  0  0  0  0
  121.0923  122.5436   87.5017 C   0  0  0  0  0  0  0  0  0  0  0  0
  122.3417  122.5577   86.8873 C   0  0  0  0  0  0  0  0  0  0  0  0
  123.4615  121.9948   87.5170 C   0  0  0  0  0  0  0  0  0  0  0  0
  124.6973  122.0281   86.8514 N   0  0  0  0  0  0  0  0  0  0  0  0
  124.7664  122.5099   85.6474 C   0  0  0  0  0  0  0  0  0  0  0  0
  123.7371  123.0532   84.9407 N   0  0  0  0  0  0  0  0  0  0  0  0
  125.9734  122.5488   85.0081 N   0  0  0  0  0  0  0  0  0  0  0  0
  126.4935  121.4919   84.4891 C   0  0  0  0  0  0  0  0  0  0  0  0
  126.0199  120.2245   84.4377 N   0  0  0  0  0  0  0  0  0  0  0  0
  127.6888  121.5557   83.8560 N   0  0  0  0  0  0  0  0  0  0  0  0
  124.3810  120.8031   90.5444 H   0  0  0  0  0  0  0  0  0  0  0  0
  124.5757  119.6789   89.1570 H   0  0  0  0  0  0  0  0  0  0  0  0
  125.4260  121.2611   89.1570 H   0  0  0  0  0  0  0  0  0  0  0  0
  119.9699  121.9501   89.2512 H   0  0  0  0  0  0  0  0  0  0  0  0
  120.2228  122.9927   86.9995 H   0  0  0  0  0  0  0  0  0  0  0  0
  122.4521  123.0168   85.8939 H   0  0  0  0  0  0  0  0  0  0  0  0
  123.8979  123.4088   83.9875 H   0  0  0  0  0  0  0  0  0  0  0  0
  122.7976  123.1086   85.3593 H   0  0  0  0  0  0  0  0  0  0  0  0
  126.5717  119.4868   83.9772 H   0  0  0  0  0  0  0  0  0  0  0  0
  125.1077  119.9982   84.8592 H   0  0  0  0  0  0  0  0  0  0  0  0
  128.0989  120.7059   83.4431 H   0  0  0  0  0  0  0  0  0  0  0  0
  128.1879  122.4541   83.7875 H   0  0  0  0  0  0  0  0  0  0  0  0
  1  2  1  0
  2  3  2  0
  3  4  1  0
  3  5  1  0
  5  6  2  0
  6  7  1  0
  7  8  2  0
  8  9  1  0
  9 10  2  3
 10 11  1  0
 10 12  1  0
 12 13  2  3
 13 14  1  0
 13 15  1  0
  8  2  1  0
  1 16  1  0
  1 17  1  0
  1 18  1  0
  5 19  1  0
  6 20  1  0
  7 21  1  0
 11 22  1  0
 11 23  1  0
 14 24  1  0
 14 25  1  0
 15 26  1  0
 15 27  1  0
M  END
>  <loss>  (14) 
0.663210928440094

>  <score>  (14) 
2.777010440826416

$$$$
ADAYMJIUZHEBPP-UHFFFAOYSA-N
     RDKit          3D

 27 27  0  0  0  0  0  0  0  0999 V2000
  124.5883  120.7989   89.4098 C   0  0  0  0  0  0  0  0  0  0  0  0
  123.3689  121.3999   88.7623 C   0  0  0  0  0  0  0  0  0  0  0  0
  122.1229  121.3772   89.4162 C   0  0  0  0  0  0  0  0  0  0  0  0
  121.9372  120.6802   90.9890 Cl  0  0  0  0  0  0  0  0  0  0  0  0
  120.9837  121.9259   88.8191 C   0  0  0  0  0  0  0  0  0  0  0  0
  121.0684  122.5067   87.5581 C   0  0  0  0  0  0  0  0  0  0  0  0
  122.2960  122.5463   86.9025 C   0  0  0  0  0  0  0  0  0  0  0  0
  123.4496  122.0160   87.4981 C   0  0  0  0  0  0  0  0  0  0  0  0
  124.6597  122.0748   86.7884 N   0  0  0  0  0  0  0  0  0  0  0  0
  124.6731  122.5468   85.5785 C   0  0  0  0  0  0  0  0  0  0  0  0
  123.5973  123.0334   84.9000 N   0  0  0  0  0  0  0  0  0  0  0  0
  125.8453  122.5889   84.8764 N   0  0  0  0  0  0  0  0  0  0  0  0
  126.4270  121.5259   84.4434 C   0  0  0  0  0  0  0  0  0  0  0  0
  127.5793  121.6148   83.7380 N   0  0  0  0  0  0  0  0  0  0  0  0
  126.0853  120.2242   84.5881 N   0  0  0  0  0  0  0  0  0  0  0  0
  124.4852  120.8497   90.5038 H   0  0  0  0  0  0  0  0  0  0  0  0
  124.6882  119.7484   89.0993 H   0  0  0  0  0  0  0  0  0  0  0  0
  125.4823  121.3596   89.0993 H   0  0  0  0  0  0  0  0  0  0  0  0
  120.0193  121.8981   89.3474 H   0  0  0  0  0  0  0  0  0  0  0  0
  120.1722  122.9317   87.0825 H   0  0  0  0  0  0  0  0  0  0  0  0
  122.3621  123.0001   85.9026 H   0  0  0  0  0  0  0  0  0  0  0  0
  123.7112  123.3871   83.9393 H   0  0  0  0  0  0  0  0  0  0  0  0
  122.6696  123.0477   85.3474 H   0  0  0  0  0  0  0  0  0  0  0  0
  128.0399  120.7601   83.3942 H   0  0  0  0  0  0  0  0  0  0  0  0
  127.9952  122.5371   83.5451 H   0  0  0  0  0  0  0  0  0  0  0  0
  126.6723  119.4882   84.1703 H   0  0  0  0  0  0  0  0  0  0  0  0
  125.2383  119.9698   85.1160 H   0  0  0  0  0  0  0  0  0  0  0  0
  1  2  1  0
  2  3  2  0
  3  4  1  0
  3  5  1  0
  5  6  2  0
  6  7  1  0
  7  8  2  0
  8  9  1  0
  9 10  2  3
 10 11  1  0
 10 12  1  0
 12 13  2  3
 13 14  1  0
 13 15  1  0
  8  2  1  0
  1 16  1  0
  1 17  1  0
  1 18  1  0
  5 19  1  0
  6 20  1  0
  7 21  1  0
 11 22  1  0
 11 23  1  0
 14 24  1  0
 14 25  1  0
 15 26  1  0
 15 27  1  0
M  END
>  <loss>  (15) 
0.6736701130867004

>  <score>  (15) 
2.8094825744628906

$$$$
ADAYMJIUZHEBPP-UHFFFAOYSA-N
     RDKit          3D

 27 27  0  0  0  0  0  0  0  0999 V2000
  123.8373  120.4970   90.2877 C   0  0  0  0  0  0  0  0  0  0  0  0
  123.1559  121.2112   89.1512 C   0  0  0  0  0  0  0  0  0  0  0  0
  121.8571  121.7292   89.3085 C   0  0  0  0  0  0  0  0  0  0  0  0
  120.9798  121.5460   90.7891 Cl  0  0  0  0  0  0  0  0  0  0  0  0
  121.2193  122.4142   88.2685 C   0  0  0  0  0  0  0  0  0  0  0  0
  121.8722  122.6014   87.0558 C   0  0  0  0  0  0  0  0  0  0  0  0
  123.1543  122.0884   86.8826 C   0  0  0  0  0  0  0  0  0  0  0  0
  123.7951  121.3764   87.9073 C   0  0  0  0  0  0  0  0  0  0  0  0
  125.0992  120.9106   87.6583 N   0  0  0  0  0  0  0  0  0  0  0  0
  125.7849  121.4206   86.6792 C   0  0  0  0  0  0  0  0  0  0  0  0
  127.0344  120.9424   86.4451 N   0  0  0  0  0  0  0  0  0  0  0  0
  125.2823  122.3741   85.8488 N   0  0  0  0  0  0  0  0  0  0  0  0
  125.9261  122.6367   84.7662 C   0  0  0  0  0  0  0  0  0  0  0  0
  127.0535  122.0778   84.2669 N   0  0  0  0  0  0  0  0  0  0  0  0
  125.4811  123.5988   83.9245 N   0  0  0  0  0  0  0  0  0  0  0  0
  123.4628  120.8895   91.2446 H   0  0  0  0  0  0  0  0  0  0  0  0
  123.6237  119.4197   90.2245 H   0  0  0  0  0  0  0  0  0  0  0  0
  124.9234  120.6597   90.2245 H   0  0  0  0  0  0  0  0  0  0  0  0
  120.2008  122.8047   88.4106 H   0  0  0  0  0  0  0  0  0  0  0  0
  121.3797  123.1505   86.2397 H   0  0  0  0  0  0  0  0  0  0  0  0
  123.6740  122.2439   85.9257 H   0  0  0  0  0  0  0  0  0  0  0  0
  127.5983  121.3298   85.6751 H   0  0  0  0  0  0  0  0  0  0  0  0
  127.4182  120.1923   87.0376 H   0  0  0  0  0  0  0  0  0  0  0  0
  127.4418  122.4117   83.3733 H   0  0  0  0  0  0  0  0  0  0  0  0
  127.5230  121.3185   84.7808 H   0  0  0  0  0  0  0  0  0  0  0  0
  125.9996  123.8059   83.0588 H   0  0  0  0  0  0  0  0  0  0  0  0
  124.6241  124.1239   84.1496 H   0  0  0  0  0  0  0  0  0  0  0  0
  1  2  1  0
  2  3  2  0
  3  4  1  0
  3  5  1  0
  5  6  2  0
  6  7  1  0
  7  8  2  0
  8  9  1  0
  9 10  2  3
 10 11  1  0
 10 12  1  0
 12 13  2  3
 13 14  1  0
 13 15  1  0
  8  2  1  0
  1 16  1  0
  1 17  1  0
  1 18  1  0
  5 19  1  0
  6 20  1  0
  7 21  1  0
 11 22  1  0
 11 23  1  0
 14 24  1  0
 14 25  1  0
 15 26  1  0
 15 27  1  0
M  END
>  <loss>  (16) 
0.6632879972457886

>  <score>  (16) 
2.7553601264953613

$$$$
ADAYMJIUZHEBPP-UHFFFAOYSA-N
     RDKit          3D

 27 27  0  0  0  0  0  0  0  0999 V2000
  124.5669  120.7555   89.4077 C   0  0  0  0  0  0  0  0  0  0  0  0
  123.3564  121.3865   88.7723 C   0  0  0  0  0  0  0  0  0  0  0  0
  122.1101  121.3690   89.4259 C   0  0  0  0  0  0  0  0  0  0  0  0
  121.9142  120.6442   90.9848 Cl  0  0  0  0  0  0  0  0  0  0  0  0
  120.9790  121.9456   88.8398 C   0  0  0  0  0  0  0  0  0  0  0  0
  121.0722  122.5497   87.5904 C   0  0  0  0  0  0  0  0  0  0  0  0
  122.3003  122.5843   86.9354 C   0  0  0  0  0  0  0  0  0  0  0  0
  123.4461  122.0260   87.5203 C   0  0  0  0  0  0  0  0  0  0  0  0
  124.6569  122.0811   86.8117 N   0  0  0  0  0  0  0  0  0  0  0  0
  124.6709  122.5427   85.5978 C   0  0  0  0  0  0  0  0  0  0  0  0
  123.5950  123.0210   84.9137 N   0  0  0  0  0  0  0  0  0  0  0  0
  125.8440  122.5812   84.8969 N   0  0  0  0  0  0  0  0  0  0  0  0
  126.4131  121.5177   84.4482 C   0  0  0  0  0  0  0  0  0  0  0  0
  127.5667  121.6033   83.7447 N   0  0  0  0  0  0  0  0  0  0  0  0
  126.0557  120.2183   84.5733 N   0  0  0  0  0  0  0  0  0  0  0  0
  124.4736  120.8041   90.5027 H   0  0  0  0  0  0  0  0  0  0  0  0
  124.6406  119.7043   89.0924 H   0  0  0  0  0  0  0  0  0  0  0  0
  125.4709  121.2971   89.0924 H   0  0  0  0  0  0  0  0  0  0  0  0
  120.0142  121.9215   89.3676 H   0  0  0  0  0  0  0  0  0  0  0  0
  120.1822  122.9968   87.1233 H   0  0  0  0  0  0  0  0  0  0  0  0
  122.3730  123.0566   85.9446 H   0  0  0  0  0  0  0  0  0  0  0  0
  123.7094  123.3665   83.9502 H   0  0  0  0  0  0  0  0  0  0  0  0
  122.6667  123.0372   85.3598 H   0  0  0  0  0  0  0  0  0  0  0  0
  128.0173  120.7483   83.3884 H   0  0  0  0  0  0  0  0  0  0  0  0
  127.9938  122.5234   83.5658 H   0  0  0  0  0  0  0  0  0  0  0  0
  126.6341  119.4815   84.1448 H   0  0  0  0  0  0  0  0  0  0  0  0
  125.2054  119.9662   85.0970 H   0  0  0  0  0  0  0  0  0  0  0  0
  1  2  1  0
  2  3  2  0
  3  4  1  0
  3  5  1  0
  5  6  2  0
  6  7  1  0
  7  8  2  0
  8  9  1  0
  9 10  2  3
 10 11  1  0
 10 12  1  0
 12 13  2  3
 13 14  1  0
 13 15  1  0
  8  2  1  0
  1 16  1  0
  1 17  1  0
  1 18  1  0
  5 19  1  0
  6 20  1  0
  7 21  1  0
 11 22  1  0
 11 23  1  0
 14 24  1  0
 14 25  1  0
 15 26  1  0
 15 27  1  0
M  END
>  <loss>  (17) 
0.6740772128105164

>  <score>  (17) 
2.794753074645996

$$$$
ADAYMJIUZHEBPP-UHFFFAOYSA-N
     RDKit          3D

 27 27  0  0  0  0  0  0  0  0999 V2000
  125.6898  122.2178   85.2385 C   0  0  0  0  0  0  0  0  0  0  0  0
  124.9427  122.0278   86.5308 C   0  0  0  0  0  0  0  0  0  0  0  0
  125.5898  122.1814   87.7706 C   0  0  0  0  0  0  0  0  0  0  0  0
  127.2661  122.5999   87.8766 Cl  0  0  0  0  0  0  0  0  0  0  0  0
  124.8978  122.0072   88.9739 C   0  0  0  0  0  0  0  0  0  0  0  0
  123.5455  121.6833   88.9603 C   0  0  0  0  0  0  0  0  0  0  0  0
  122.8863  121.5485   87.7414 C   0  0  0  0  0  0  0  0  0  0  0  0
  123.5633  121.7384   86.5276 C   0  0  0  0  0  0  0  0  0  0  0  0
  122.8369  121.5797   85.3337 N   0  0  0  0  0  0  0  0  0  0  0  0
  121.9270  122.4549   85.0284 C   0  0  0  0  0  0  0  0  0  0  0  0
  121.2481  122.3077   83.8603 N   0  0  0  0  0  0  0  0  0  0  0  0
  121.6587  123.5432   85.7995 N   0  0  0  0  0  0  0  0  0  0  0  0
  120.7612  124.3668   85.3843 C   0  0  0  0  0  0  0  0  0  0  0  0
  120.0194  124.3456   84.2513 N   0  0  0  0  0  0  0  0  0  0  0  0
  120.4339  125.4490   86.1281 N   0  0  0  0  0  0  0  0  0  0  0  0
  126.7350  122.4836   85.4549 H   0  0  0  0  0  0  0  0  0  0  0  0
  125.6616  121.2839   84.6580 H   0  0  0  0  0  0  0  0  0  0  0  0
  125.2188  123.0247   84.6580 H   0  0  0  0  0  0  0  0  0  0  0  0
  125.4243  122.1265   89.9323 H   0  0  0  0  0  0  0  0  0  0  0  0
  123.0013  121.5349   89.9046 H   0  0  0  0  0  0  0  0  0  0  0  0
  121.8174  121.2890   87.7300 H   0  0  0  0  0  0  0  0  0  0  0  0
  120.5221  122.9893   83.5971 H   0  0  0  0  0  0  0  0  0  0  0  0
  121.4595  121.5145   83.2381 H   0  0  0  0  0  0  0  0  0  0  0  0
  119.3349  125.0935   84.0698 H   0  0  0  0  0  0  0  0  0  0  0  0
  120.1397  123.5814   83.5712 H   0  0  0  0  0  0  0  0  0  0  0  0
  119.7151  126.1061   85.7928 H   0  0  0  0  0  0  0  0  0  0  0  0
  120.9037  125.6156   87.0295 H   0  0  0  0  0  0  0  0  0  0  0  0
  1  2  1  0
  2  3  2  0
  3  4  1  0
  3  5  1  0
  5  6  2  0
  6  7  1  0
  7  8  2  0
  8  9  1  0
  9 10  2  3
 10 11  1  0
 10 12  1  0
 12 13  2  3
 13 14  1  0
 13 15  1  0
  8  2  1  0
  1 16  1  0
  1 17  1  0
  1 18  1  0
  5 19  1  0
  6 20  1  0
  7 21  1  0
 11 22  1  0
 11 23  1  0
 14 24  1  0
 14 25  1  0
 15 26  1  0
 15 27  1  0
M  END
>  <loss>  (18) 
0.6828529238700867

>  <score>  (18) 
2.8259048461914062

$$$$
ADAYMJIUZHEBPP-UHFFFAOYSA-N
     RDKit          3D

 27 27  0  0  0  0  0  0  0  0999 V2000
  125.6384  122.1147   85.0517 C   0  0  0  0  0  0  0  0  0  0  0  0
  124.9615  121.9980   86.3905 C   0  0  0  0  0  0  0  0  0  0  0  0
  125.6802  122.1906   87.5845 C   0  0  0  0  0  0  0  0  0  0  0  0
  127.3680  122.5752   87.5788 Cl  0  0  0  0  0  0  0  0  0  0  0  0
  125.0536  122.0846   88.8307 C   0  0  0  0  0  0  0  0  0  0  0  0
  123.6964  121.7913   88.9064 C   0  0  0  0  0  0  0  0  0  0  0  0
  122.9670  121.6186   87.7330 C   0  0  0  0  0  0  0  0  0  0  0  0
  123.5785  121.7401   86.4764 C   0  0  0  0  0  0  0  0  0  0  0  0
  122.7830  121.5463   85.3328 N   0  0  0  0  0  0  0  0  0  0  0  0
  121.8872  122.4366   85.0298 C   0  0  0  0  0  0  0  0  0  0  0  0
  121.1409  122.2538   83.9087 N   0  0  0  0  0  0  0  0  0  0  0  0
  121.6976  123.5721   85.7547 N   0  0  0  0  0  0  0  0  0  0  0  0
  120.7770  124.3844   85.3686 C   0  0  0  0  0  0  0  0  0  0  0  0
  119.9411  124.3091   84.3056 N   0  0  0  0  0  0  0  0  0  0  0  0
  120.5263  125.5133   86.0717 N   0  0  0  0  0  0  0  0  0  0  0  0
  126.7126  122.2998   85.1988 H   0  0  0  0  0  0  0  0  0  0  0  0
  125.5012  121.1796   84.4887 H   0  0  0  0  0  0  0  0  0  0  0  0
  125.1961  122.9498   84.4887 H   0  0  0  0  0  0  0  0  0  0  0  0
  125.6354  122.2335   89.7523 H   0  0  0  0  0  0  0  0  0  0  0  0
  123.2032  121.6964   89.8851 H   0  0  0  0  0  0  0  0  0  0  0  0
  121.8942  121.3832   87.7924 H   0  0  0  0  0  0  0  0  0  0  0  0
  120.4245  122.9466   83.6483 H   0  0  0  0  0  0  0  0  0  0  0  0
  121.2917  121.4226   83.3195 H   0  0  0  0  0  0  0  0  0  0  0  0
  119.2520  125.0560   84.1383 H   0  0  0  0  0  0  0  0  0  0  0  0
  119.9947  123.5048   83.6644 H   0  0  0  0  0  0  0  0  0  0  0  0
  119.7887  126.1611   85.7599 H   0  0  0  0  0  0  0  0  0  0  0  0
  121.0730  125.7246   86.9187 H   0  0  0  0  0  0  0  0  0  0  0  0
  1  2  1  0
  2  3  2  0
  3  4  1  0
  3  5  1  0
  5  6  2  0
  6  7  1  0
  7  8  2  0
  8  9  1  0
  9 10  2  3
 10 11  1  0
 10 12  1  0
 12 13  2  3
 13 14  1  0
 13 15  1  0
  8  2  1  0
  1 16  1  0
  1 17  1  0
  1 18  1  0
  5 19  1  0
  6 20  1  0
  7 21  1  0
 11 22  1  0
 11 23  1  0
 14 24  1  0
 14 25  1  0
 15 26  1  0
 15 27  1  0
M  END
>  <loss>  (19) 
0.6776250004768372

>  <score>  (19) 
2.7858195304870605

$$$$
ADAYMJIUZHEBPP-UHFFFAOYSA-N
     RDKit          3D

 27 27  0  0  0  0  0  0  0  0999 V2000
  125.6816  122.2722   85.2395 C   0  0  0  0  0  0  0  0  0  0  0  0
  124.9379  122.0656   86.5312 C   0  0  0  0  0  0  0  0  0  0  0  0
  125.5791  122.2380   87.7716 C   0  0  0  0  0  0  0  0  0  0  0  0
  127.2440  122.6994   87.8789 Cl  0  0  0  0  0  0  0  0  0  0  0  0
  124.8901  122.0485   88.9742 C   0  0  0  0  0  0  0  0  0  0  0  0
  123.5465  121.6902   88.9594 C   0  0  0  0  0  0  0  0  0  0  0  0
  122.8926  121.5364   87.7399 C   0  0  0  0  0  0  0  0  0  0  0  0
  123.5663  121.7412   86.5266 C   0  0  0  0  0  0  0  0  0  0  0  0
  122.8457  121.5618   85.3321 N   0  0  0  0  0  0  0  0  0  0  0  0
  121.9394  122.4331   85.0058 C   0  0  0  0  0  0  0  0  0  0  0  0
  121.2663  122.2656   83.8370 N   0  0  0  0  0  0  0  0  0  0  0  0
  121.6695  123.5361   85.7550 N   0  0  0  0  0  0  0  0  0  0  0  0
  120.7485  124.3334   85.3399 C   0  0  0  0  0  0  0  0  0  0  0  0
  119.9819  124.2705   84.2251 N   0  0  0  0  0  0  0  0  0  0  0  0
  120.4191  125.4287   86.0633 N   0  0  0  0  0  0  0  0  0  0  0  0
  126.7206  122.5608   85.4568 H   0  0  0  0  0  0  0  0  0  0  0  0
  125.6743  121.3381   84.6588 H   0  0  0  0  0  0  0  0  0  0  0  0
  125.1936  123.0688   84.6588 H   0  0  0  0  0  0  0  0  0  0  0  0
  125.4120  122.1830   89.9331 H   0  0  0  0  0  0  0  0  0  0  0  0
  123.0049  121.5297   89.9033 H   0  0  0  0  0  0  0  0  0  0  0  0
  121.8307  121.2497   87.7276 H   0  0  0  0  0  0  0  0  0  0  0  0
  120.5432  122.9437   83.5574 H   0  0  0  0  0  0  0  0  0  0  0  0
  121.4793  121.4605   83.2309 H   0  0  0  0  0  0  0  0  0  0  0  0
  119.2805  125.0019   84.0404 H   0  0  0  0  0  0  0  0  0  0  0  0
  120.1002  123.4913   83.5620 H   0  0  0  0  0  0  0  0  0  0  0  0
  119.6815  126.0647   85.7281 H   0  0  0  0  0  0  0  0  0  0  0  0
  120.9061  125.6264   86.9492 H   0  0  0  0  0  0  0  0  0  0  0  0
  1  2  1  0
  2  3  2  0
  3  4  1  0
  3  5  1  0
  5  6  2  0
  6  7  1  0
  7  8  2  0
  8  9  1  0
  9 10  2  3
 10 11  1  0
 10 12  1  0
 12 13  2  3
 13 14  1  0
 13 15  1  0
  8  2  1  0
  1 16  1  0
  1 17  1  0
  1 18  1  0
  5 19  1  0
  6 20  1  0
  7 21  1  0
 11 22  1  0
 11 23  1  0
 14 24  1  0
 14 25  1  0
 15 26  1  0
 15 27  1  0
M  END
>  <loss>  (20) 
0.6826201677322388

>  <score>  (20) 
2.778193712234497

$$$$
ADAYMJIUZHEBPP-UHFFFAOYSA-N
     RDKit          3D

 27 27  0  0  0  0  0  0  0  0999 V2000
  125.6971  122.3501   85.2882 C   0  0  0  0  0  0  0  0  0  0  0  0
  124.8069  122.1095   86.4781 C   0  0  0  0  0  0  0  0  0  0  0  0
  125.1867  121.2009   87.4831 C   0  0  0  0  0  0  0  0  0  0  0  0
  126.6643  120.3049   87.3857 Cl  0  0  0  0  0  0  0  0  0  0  0  0
  124.3801  120.9829   88.6053 C   0  0  0  0  0  0  0  0  0  0  0  0
  123.1838  121.6762   88.7472 C   0  0  0  0  0  0  0  0  0  0  0  0
  122.7911  122.5727   87.7579 C   0  0  0  0  0  0  0  0  0  0  0  0
  123.5766  122.7811   86.6146 C   0  0  0  0  0  0  0  0  0  0  0  0
  123.1184  123.7210   85.6732 N   0  0  0  0  0  0  0  0  0  0  0  0
  121.9627  123.5465   85.1050 C   0  0  0  0  0  0  0  0  0  0  0  0
  121.5489  124.4561   84.1852 N   0  0  0  0  0  0  0  0  0  0  0  0
  121.1771  122.4640   85.3551 N   0  0  0  0  0  0  0  0  0  0  0  0
  120.0577  122.3687   84.7280 C   0  0  0  0  0  0  0  0  0  0  0  0
  119.5138  123.1796   83.7903 N   0  0  0  0  0  0  0  0  0  0  0  0
  119.2290  121.3254   84.9667 N   0  0  0  0  0  0  0  0  0  0  0  0
  126.7053  122.6225   85.6337 H   0  0  0  0  0  0  0  0  0  0  0  0
  125.7526  121.4347   84.6807 H   0  0  0  0  0  0  0  0  0  0  0  0
  125.2840  123.1688   84.6807 H   0  0  0  0  0  0  0  0  0  0  0  0
  124.6929  120.2626   89.3757 H   0  0  0  0  0  0  0  0  0  0  0  0
  122.5527  121.5176   89.6341 H   0  0  0  0  0  0  0  0  0  0  0  0
  121.8483  123.1274   87.8744 H   0  0  0  0  0  0  0  0  0  0  0  0
  120.6370  124.3405   83.7206 H   0  0  0  0  0  0  0  0  0  0  0  0
  122.1471  125.2617   83.9522 H   0  0  0  0  0  0  0  0  0  0  0  0
  118.5945  122.9536   83.3845 H   0  0  0  0  0  0  0  0  0  0  0  0
  120.0193  124.0227   83.4828 H   0  0  0  0  0  0  0  0  0  0  0  0
  118.3338  121.2529   84.4625 H   0  0  0  0  0  0  0  0  0  0  0  0
  119.4937  120.6040   85.6526 H   0  0  0  0  0  0  0  0  0  0  0  0
  1  2  1  0
  2  3  2  0
  3  4  1  0
  3  5  1  0
  5  6  2  0
  6  7  1  0
  7  8  2  0
  8  9  1  0
  9 10  2  3
 10 11  1  0
 10 12  1  0
 12 13  2  3
 13 14  1  0
 13 15  1  0
  8  2  1  0
  1 16  1  0
  1 17  1  0
  1 18  1  0
  5 19  1  0
  6 20  1  0
  7 21  1  0
 11 22  1  0
 11 23  1  0
 14 24  1  0
 14 25  1  0
 15 26  1  0
 15 27  1  0
M  END
>  <loss>  (21) 
0.6985938549041748

>  <score>  (21) 
2.5173606872558594

$$$$
ADAYMJIUZHEBPP-UHFFFAOYSA-N
     RDKit          3D

 27 27  0  0  0  0  0  0  0  0999 V2000
  125.6827  122.3249   85.2952 C   0  0  0  0  0  0  0  0  0  0  0  0
  124.7983  122.0933   86.4912 C   0  0  0  0  0  0  0  0  0  0  0  0
  125.1729  121.1763   87.4905 C   0  0  0  0  0  0  0  0  0  0  0  0
  126.6367  120.2597   87.3790 Cl  0  0  0  0  0  0  0  0  0  0  0  0
  124.3718  120.9663   88.6183 C   0  0  0  0  0  0  0  0  0  0  0  0
  123.1866  121.6761   88.7714 C   0  0  0  0  0  0  0  0  0  0  0  0
  122.7991  122.5811   87.7878 C   0  0  0  0  0  0  0  0  0  0  0  0
  123.5788  122.7819   86.6392 C   0  0  0  0  0  0  0  0  0  0  0  0
  123.1268  123.7312   85.7041 N   0  0  0  0  0  0  0  0  0  0  0  0
  121.9581  123.5827   85.1554 C   0  0  0  0  0  0  0  0  0  0  0  0
  121.5502  124.5008   84.2413 N   0  0  0  0  0  0  0  0  0  0  0  0
  121.1520  122.5190   85.4200 N   0  0  0  0  0  0  0  0  0  0  0  0
  120.0197  122.4498   84.8130 C   0  0  0  0  0  0  0  0  0  0  0  0
  119.4782  123.2732   83.8848 N   0  0  0  0  0  0  0  0  0  0  0  0
  119.1712  121.4262   85.0671 N   0  0  0  0  0  0  0  0  0  0  0  0
  126.6952  122.5900   85.6337 H   0  0  0  0  0  0  0  0  0  0  0  0
  125.7271  121.4081   84.6889 H   0  0  0  0  0  0  0  0  0  0  0  0
  125.2721  123.1458   84.6889 H   0  0  0  0  0  0  0  0  0  0  0  0
  124.6802  120.2392   89.3840 H   0  0  0  0  0  0  0  0  0  0  0  0
  122.5601  121.5237   89.6627 H   0  0  0  0  0  0  0  0  0  0  0  0
  121.8653  123.1488   87.9133 H   0  0  0  0  0  0  0  0  0  0  0  0
  120.6282  124.4057   83.7920 H   0  0  0  0  0  0  0  0  0  0  0  0
  122.1628  125.2920   83.9973 H   0  0  0  0  0  0  0  0  0  0  0  0
  118.5468  123.0686   83.4956 H   0  0  0  0  0  0  0  0  0  0  0  0
  119.9977  124.1042   83.5679 H   0  0  0  0  0  0  0  0  0  0  0  0
  118.2657  121.3746   84.5790 H   0  0  0  0  0  0  0  0  0  0  0  0
  119.4312  120.6988   85.7485 H   0  0  0  0  0  0  0  0  0  0  0  0
  1  2  1  0
  2  3  2  0
  3  4  1  0
  3  5  1  0
  5  6  2  0
  6  7  1  0
  7  8  2  0
  8  9  1  0
  9 10  2  3
 10 11  1  0
 10 12  1  0
 12 13  2  3
 13 14  1  0
 13 15  1  0
  8  2  1  0
  1 16  1  0
  1 17  1  0
  1 18  1  0
  5 19  1  0
  6 20  1  0
  7 21  1  0
 11 22  1  0
 11 23  1  0
 14 24  1  0
 14 25  1  0
 15 26  1  0
 15 27  1  0
M  END
>  <loss>  (22) 
0.7169968485832214

>  <score>  (22) 
2.547229051589966

$$$$
ADAYMJIUZHEBPP-UHFFFAOYSA-N
     RDKit          3D

 27 27  0  0  0  0  0  0  0  0999 V2000
  125.2213  123.0630   85.0084 C   0  0  0  0  0  0  0  0  0  0  0  0
  124.6069  122.4652   86.2459 C   0  0  0  0  0  0  0  0  0  0  0  0
  125.2619  121.4325   86.9420 C   0  0  0  0  0  0  0  0  0  0  0  0
  126.7730  120.7875   86.3983 Cl  0  0  0  0  0  0  0  0  0  0  0  0
  124.7137  120.8819   88.1056 C   0  0  0  0  0  0  0  0  0  0  0  0
  123.5056  121.3603   88.5991 C   0  0  0  0  0  0  0  0  0  0  0  0
  122.8423  122.3763   87.9175 C   0  0  0  0  0  0  0  0  0  0  0  0
  123.3667  122.9190   86.7351 C   0  0  0  0  0  0  0  0  0  0  0  0
  122.6446  123.9583   86.1203 N   0  0  0  0  0  0  0  0  0  0  0  0
  121.6229  123.6710   85.3703 C   0  0  0  0  0  0  0  0  0  0  0  0
  120.9521  124.6890   84.7714 N   0  0  0  0  0  0  0  0  0  0  0  0
  121.2321  122.3920   85.1194 N   0  0  0  0  0  0  0  0  0  0  0  0
  120.2021  122.2079   84.3706 C   0  0  0  0  0  0  0  0  0  0  0  0
  119.4212  123.1080   83.7284 N   0  0  0  0  0  0  0  0  0  0  0  0
  119.7579  120.9544   84.1182 N   0  0  0  0  0  0  0  0  0  0  0  0
  125.9821  123.8031   85.2975 H   0  0  0  0  0  0  0  0  0  0  0  0
  125.6918  122.2676   84.4117 H   0  0  0  0  0  0  0  0  0  0  0  0
  124.4392  123.5551   84.4117 H   0  0  0  0  0  0  0  0  0  0  0  0
  125.2391  120.0702   88.6301 H   0  0  0  0  0  0  0  0  0  0  0  0
  123.0773  120.9393   89.5206 H   0  0  0  0  0  0  0  0  0  0  0  0
  121.8903  122.7603   88.3128 H   0  0  0  0  0  0  0  0  0  0  0  0
  120.1389  124.4877   84.1721 H   0  0  0  0  0  0  0  0  0  0  0  0
  121.2566  125.6621   84.9165 H   0  0  0  0  0  0  0  0  0  0  0  0
  118.6237  122.7862   83.1615 H   0  0  0  0  0  0  0  0  0  0  0  0
  119.6244  124.1148   83.8066 H   0  0  0  0  0  0  0  0  0  0  0  0
  118.9330  120.8115   83.5182 H   0  0  0  0  0  0  0  0  0  0  0  0
  120.2448  120.1436   84.5260 H   0  0  0  0  0  0  0  0  0  0  0  0
  1  2  1  0
  2  3  2  0
  3  4  1  0
  3  5  1  0
  5  6  2  0
  6  7  1  0
  7  8  2  0
  8  9  1  0
  9 10  2  3
 10 11  1  0
 10 12  1  0
 12 13  2  3
 13 14  1  0
 13 15  1  0
  8  2  1  0
  1 16  1  0
  1 17  1  0
  1 18  1  0
  5 19  1  0
  6 20  1  0
  7 21  1  0
 11 22  1  0
 11 23  1  0
 14 24  1  0
 14 25  1  0
 15 26  1  0
 15 27  1  0
M  END
>  <loss>  (23) 
0.7151687741279602

>  <score>  (23) 
2.4566490650177

$$$$
ADAYMJIUZHEBPP-UHFFFAOYSA-N
     RDKit          3D

 27 27  0  0  0  0  0  0  0  0999 V2000
  121.8938  119.9948   90.0021 C   0  0  0  0  0  0  0  0  0  0  0  0
  122.1513  121.0211   88.9321 C   0  0  0  0  0  0  0  0  0  0  0  0
  121.1997  122.0145   88.6375 C   0  0  0  0  0  0  0  0  0  0  0  0
  119.6947  122.1136   89.4871 Cl  0  0  0  0  0  0  0  0  0  0  0  0
  121.4367  122.9711   87.6447 C   0  0  0  0  0  0  0  0  0  0  0  0
  122.6315  122.9568   86.9333 C   0  0  0  0  0  0  0  0  0  0  0  0
  123.5919  121.9927   87.2278 C   0  0  0  0  0  0  0  0  0  0  0  0
  123.3752  121.0388   88.2332 C   0  0  0  0  0  0  0  0  0  0  0  0
  124.3854  120.0901   88.4730 N   0  0  0  0  0  0  0  0  0  0  0  0
  125.3459  120.3863   89.2956 C   0  0  0  0  0  0  0  0  0  0  0  0
  126.3036  119.4537   89.5410 N   0  0  0  0  0  0  0  0  0  0  0  0
  125.4087  121.5691   89.9648 N   0  0  0  0  0  0  0  0  0  0  0  0
  126.3057  121.6951   90.8790 C   0  0  0  0  0  0  0  0  0  0  0  0
  127.2254  120.8054   91.3227 N   0  0  0  0  0  0  0  0  0  0  0  0
  126.4314  122.8616   91.5535 N   0  0  0  0  0  0  0  0  0  0  0  0
  122.0105  120.4600   90.9920 H   0  0  0  0  0  0  0  0  0  0  0  0
  120.8701  119.6058   89.8982 H   0  0  0  0  0  0  0  0  0  0  0  0
  122.6124  119.1685   89.8982 H   0  0  0  0  0  0  0  0  0  0  0  0
  120.6768  123.7359   87.4264 H   0  0  0  0  0  0  0  0  0  0  0  0
  122.8162  123.7009   86.1445 H   0  0  0  0  0  0  0  0  0  0  0  0
  124.5357  121.9788   86.6630 H   0  0  0  0  0  0  0  0  0  0  0  0
  127.0750  119.6661   90.1897 H   0  0  0  0  0  0  0  0  0  0  0  0
  126.2580  118.5346   89.0784 H   0  0  0  0  0  0  0  0  0  0  0  0
  127.8789  121.0712   92.0732 H   0  0  0  0  0  0  0  0  0  0  0  0
  127.2714  119.8629   90.9098 H   0  0  0  0  0  0  0  0  0  0  0  0
  127.1504  122.9589   92.2845 H   0  0  0  0  0  0  0  0  0  0  0  0
  125.8081  123.6522   91.3357 H   0  0  0  0  0  0  0  0  0  0  0  0
  1  2  1  0
  2  3  2  0
  3  4  1  0
  3  5  1  0
  5  6  2  0
  6  7  1  0
  7  8  2  0
  8  9  1  0
  9 10  2  3
 10 11  1  0
 10 12  1  0
 12 13  2  3
 13 14  1  0
 13 15  1  0
  8  2  1  0
  1 16  1  0
  1 17  1  0
  1 18  1  0
  5 19  1  0
  6 20  1  0
  7 21  1  0
 11 22  1  0
 11 23  1  0
 14 24  1  0
 14 25  1  0
 15 26  1  0
 15 27  1  0
M  END
>  <loss>  (24) 
0.7426804900169373

>  <score>  (24) 
2.290095806121826

$$$$
ADAYMJIUZHEBPP-UHFFFAOYSA-N
     RDKit          3D

 27 27  0  0  0  0  0  0  0  0999 V2000
  122.1224  119.9250   90.1380 C   0  0  0  0  0  0  0  0  0  0  0  0
  122.2910  120.9579   89.0569 C   0  0  0  0  0  0  0  0  0  0  0  0
  121.3033  121.9329   88.8265 C   0  0  0  0  0  0  0  0  0  0  0  0
  119.8541  122.0010   89.7707 Cl  0  0  0  0  0  0  0  0  0  0  0  0
  121.4578  122.8957   87.8234 C   0  0  0  0  0  0  0  0  0  0  0  0
  122.6047  122.9060   87.0371 C   0  0  0  0  0  0  0  0  0  0  0  0
  123.6006  121.9605   87.2669 C   0  0  0  0  0  0  0  0  0  0  0  0
  123.4671  121.0008   88.2813 C   0  0  0  0  0  0  0  0  0  0  0  0
  124.5089  120.0717   88.4533 N   0  0  0  0  0  0  0  0  0  0  0  0
  125.5211  120.3910   89.2021 C   0  0  0  0  0  0  0  0  0  0  0  0
  126.5106  119.4772   89.3835 N   0  0  0  0  0  0  0  0  0  0  0  0
  125.6109  121.5800   89.8572 N   0  0  0  0  0  0  0  0  0  0  0  0
  126.5362  121.7095   90.7423 C   0  0  0  0  0  0  0  0  0  0  0  0
  127.4641  120.8188   91.1666 N   0  0  0  0  0  0  0  0  0  0  0  0
  126.6891  122.8818   91.4010 N   0  0  0  0  0  0  0  0  0  0  0  0
  122.2014  120.4087   91.1228 H   0  0  0  0  0  0  0  0  0  0  0  0
  121.1348  119.4503   90.0408 H   0  0  0  0  0  0  0  0  0  0  0  0
  122.9076  119.1608   90.0408 H   0  0  0  0  0  0  0  0  0  0  0  0
  120.6707  123.6457   87.6563 H   0  0  0  0  0  0  0  0  0  0  0  0
  122.7242  123.6549   86.2403 H   0  0  0  0  0  0  0  0  0  0  0  0
  124.5065  121.9660   86.6430 H   0  0  0  0  0  0  0  0  0  0  0  0
  127.3230  119.7080   89.9731 H   0  0  0  0  0  0  0  0  0  0  0  0
  126.4481  118.5538   88.9314 H   0  0  0  0  0  0  0  0  0  0  0  0
  128.1417  121.0881   91.8941 H   0  0  0  0  0  0  0  0  0  0  0  0
  127.4920  119.8720   90.7619 H   0  0  0  0  0  0  0  0  0  0  0  0
  127.4307  122.9820   92.1087 H   0  0  0  0  0  0  0  0  0  0  0  0
  126.0639  123.6739   91.1945 H   0  0  0  0  0  0  0  0  0  0  0  0
  1  2  1  0
  2  3  2  0
  3  4  1  0
  3  5  1  0
  5  6  2  0
  6  7  1  0
  7  8  2  0
  8  9  1  0
  9 10  2  3
 10 11  1  0
 10 12  1  0
 12 13  2  3
 13 14  1  0
 13 15  1  0
  8  2  1  0
  1 16  1  0
  1 17  1  0
  1 18  1  0
  5 19  1  0
  6 20  1  0
  7 21  1  0
 11 22  1  0
 11 23  1  0
 14 24  1  0
 14 25  1  0
 15 26  1  0
 15 27  1  0
M  END
>  <loss>  (25) 
0.745866060256958

>  <score>  (25) 
2.240872621536255

$$$$
