BDZAJGMDKFYQCV-UHFFFAOYSA-N
     RDKit          3D

 36 36  0  0  0  0  0  0  0  0999 V2000
  125.0425  129.3319   82.7428 C   0  0  0  0  0  0  0  0  0  0  0  0
  123.7663  128.5144   82.6228 C   0  0  0  0  0  0  0  0  0  0  0  0
  124.0580  127.0841   82.1717 C   0  0  0  0  0  0  0  0  0  0  0  0
  122.7934  126.2285   82.1835 C   0  0  0  0  0  0  0  0  0  0  0  0
  123.1438  124.8625   81.7913 N   0  0  0  0  0  0  0  0  0  0  0  0
  122.0528  123.6285   82.1171 S   0  0  0  0  0  6  0  0  0  0  0  0
  120.7168  124.1728   82.0187 O   0  0  0  0  0  0  0  0  0  0  0  0
  122.4751  122.4903   81.3323 O   0  0  0  0  0  0  0  0  0  0  0  0
  122.4041  123.2660   83.8171 C   0  0  0  0  0  0  0  0  0  0  0  0
  121.4958  123.6235   84.8127 C   0  0  0  0  0  0  0  0  0  0  0  0
  121.7862  123.3222   86.1467 C   0  0  0  0  0  0  0  0  0  0  0  0
  122.9760  122.6636   86.4940 C   0  0  0  0  0  0  0  0  0  0  0  0
  123.1820  122.4038   87.8646 N   0  0  0  0  0  0  0  0  0  0  0  0
  124.2451  121.7160   88.4629 C   0  0  0  0  0  0  0  0  0  0  0  0
  125.4113  121.7890   88.0746 O   0  0  0  0  0  0  0  0  0  0  0  0
  123.8304  120.8821   89.7059 C   0  0  0  0  0  0  0  0  0  0  0  0
  122.4006  119.8851   89.2953 Cl  0  0  0  0  0  0  0  0  0  0  0  0
  123.3914  122.0255   91.0070 Cl  0  0  0  0  0  0  0  0  0  0  0  0
  125.1509  119.8228   90.2455 Cl  0  0  0  0  0  0  0  0  0  0  0  0
  123.8710  122.3058   85.4821 C   0  0  0  0  0  0  0  0  0  0  0  0
  123.5868  122.6015   84.1441 C   0  0  0  0  0  0  0  0  0  0  0  0
  125.2813  129.4848   83.8057 H   0  0  0  0  0  0  0  0  0  0  0  0
  125.8692  128.7949   82.2549 H   0  0  0  0  0  0  0  0  0  0  0  0
  124.9003  130.3074   82.2549 H   0  0  0  0  0  0  0  0  0  0  0  0
  123.2669  128.4853   83.6024 H   0  0  0  0  0  0  0  0  0  0  0  0
  123.1217  128.9895   81.8686 H   0  0  0  0  0  0  0  0  0  0  0  0
  124.4654  127.1068   81.1502 H   0  0  0  0  0  0  0  0  0  0  0  0
  124.7828  126.6411   82.8706 H   0  0  0  0  0  0  0  0  0  0  0  0
  122.3603  126.2231   83.1946 H   0  0  0  0  0  0  0  0  0  0  0  0
  122.0562  126.6418   81.4794 H   0  0  0  0  0  0  0  0  0  0  0  0
  123.2994  124.8693   80.7731 H   0  0  0  0  0  0  0  0  0  0  0  0
  120.5594  124.1380   84.5511 H   0  0  0  0  0  0  0  0  0  0  0  0
  121.0727  123.6051   86.9346 H   0  0  0  0  0  0  0  0  0  0  0  0
  122.4609  122.7648   88.5053 H   0  0  0  0  0  0  0  0  0  0  0  0
  124.8065  121.7875   85.7394 H   0  0  0  0  0  0  0  0  0  0  0  0
  124.2935  122.3111   83.3527 H   0  0  0  0  0  0  0  0  0  0  0  0
  1  2  1  0
  2  3  1  0
  3  4  1  0
  4  5  1  0
  5  6  1  0
  6  7  2  0
  6  8  2  0
  6  9  1  0
  9 10  2  0
 10 11  1  0
 11 12  2  0
 12 13  1  0
 13 14  1  0
 14 15  2  0
 14 16  1  0
 16 17  1  0
 16 18  1  0
 16 19  1  0
 12 20  1  0
 20 21  2  0
 21  9  1  0
  1 22  1  0
  1 23  1  0
  1 24  1  0
  2 25  1  0
  2 26  1  0
  3 27  1  0
  3 28  1  0
  4 29  1  0
  4 30  1  0
  5 31  1  0
 10 32  1  0
 11 33  1  0
 13 34  1  0
 20 35  1  0
 21 36  1  0
M  END
>  <loss>  (1) 
0.634509801864624

>  <score>  (1) 
1.0065823793411255

$$$$
BDZAJGMDKFYQCV-UHFFFAOYSA-N
     RDKit          3D

 36 36  0  0  0  0  0  0  0  0999 V2000
  119.8491  123.9838   92.2754 C   0  0  0  0  0  0  0  0  0  0  0  0
  118.7442  124.1355   91.2415 C   0  0  0  0  0  0  0  0  0  0  0  0
  119.2347  124.6777   89.8949 C   0  0  0  0  0  0  0  0  0  0  0  0
  118.7453  123.9000   88.6738 C   0  0  0  0  0  0  0  0  0  0  0  0
  118.2014  124.8240   87.6823 N   0  0  0  0  0  0  0  0  0  0  0  0
  117.8823  124.2998   86.1248 S   0  0  0  0  0  6  0  0  0  0  0  0
  117.2246  123.0149   86.2088 O   0  0  0  0  0  0  0  0  0  0  0  0
  117.2927  125.4181   85.4240 O   0  0  0  0  0  0  0  0  0  0  0  0
  119.5112  124.0457   85.4638 C   0  0  0  0  0  0  0  0  0  0  0  0
  119.7000  124.0658   84.0813 C   0  0  0  0  0  0  0  0  0  0  0  0
  120.9789  123.8590   83.5519 C   0  0  0  0  0  0  0  0  0  0  0  0
  122.0676  123.6208   84.3953 C   0  0  0  0  0  0  0  0  0  0  0  0
  123.3860  123.4003   83.9466 N   0  0  0  0  0  0  0  0  0  0  0  0
  123.8641  122.3480   83.1558 C   0  0  0  0  0  0  0  0  0  0  0  0
  123.1356  121.5948   82.5089 O   0  0  0  0  0  0  0  0  0  0  0  0
  125.4136  122.2445   83.1204 C   0  0  0  0  0  0  0  0  0  0  0  0
  125.8638  121.3353   81.6493 Cl  0  0  0  0  0  0  0  0  0  0  0  0
  126.0404  121.4189   84.5632 Cl  0  0  0  0  0  0  0  0  0  0  0  0
  126.1112  123.8909   83.0281 Cl  0  0  0  0  0  0  0  0  0  0  0  0
  121.8571  123.5871   85.7823 C   0  0  0  0  0  0  0  0  0  0  0  0
  120.5837  123.7961   86.3198 C   0  0  0  0  0  0  0  0  0  0  0  0
  119.4169  124.0431   93.2853 H   0  0  0  0  0  0  0  0  0  0  0  0
  120.3425  123.0095   92.1444 H   0  0  0  0  0  0  0  0  0  0  0  0
  120.5869  124.7890   92.1444 H   0  0  0  0  0  0  0  0  0  0  0  0
  118.2871  123.1491   91.0737 H   0  0  0  0  0  0  0  0  0  0  0  0
  118.0261  124.8666   91.6415 H   0  0  0  0  0  0  0  0  0  0  0  0
  118.8900  125.7178   89.7988 H   0  0  0  0  0  0  0  0  0  0  0  0
  120.3305  124.5824   89.9036 H   0  0  0  0  0  0  0  0  0  0  0  0
  119.5869  123.3456   88.2329 H   0  0  0  0  0  0  0  0  0  0  0  0
  117.9585  123.1964   88.9835 H   0  0  0  0  0  0  0  0  0  0  0  0
  117.3122  125.1775   88.0635 H   0  0  0  0  0  0  0  0  0  0  0  0
  118.8467  124.2436   83.4101 H   0  0  0  0  0  0  0  0  0  0  0  0
  121.1286  123.8842   82.4624 H   0  0  0  0  0  0  0  0  0  0  0  0
  124.0841  124.1001   84.2364 H   0  0  0  0  0  0  0  0  0  0  0  0
  122.7053  123.3938   86.4555 H   0  0  0  0  0  0  0  0  0  0  0  0
  120.4288  123.7640   87.4083 H   0  0  0  0  0  0  0  0  0  0  0  0
  1  2  1  0
  2  3  1  0
  3  4  1  0
  4  5  1  0
  5  6  1  0
  6  7  2  0
  6  8  2  0
  6  9  1  0
  9 10  2  0
 10 11  1  0
 11 12  2  0
 12 13  1  0
 13 14  1  0
 14 15  2  0
 14 16  1  0
 16 17  1  0
 16 18  1  0
 16 19  1  0
 12 20  1  0
 20 21  2  0
 21  9  1  0
  1 22  1  0
  1 23  1  0
  1 24  1  0
  2 25  1  0
  2 26  1  0
  3 27  1  0
  3 28  1  0
  4 29  1  0
  4 30  1  0
  5 31  1  0
 10 32  1  0
 11 33  1  0
 13 34  1  0
 20 35  1  0
 21 36  1  0
M  END
>  <loss>  (2) 
0.5795809626579285

>  <score>  (2) 
-1.697379469871521

$$$$
BDZAJGMDKFYQCV-UHFFFAOYSA-N
     RDKit          3D

 36 36  0  0  0  0  0  0  0  0999 V2000
  120.3900  119.8387   92.4693 C   0  0  0  0  0  0  0  0  0  0  0  0
  119.6997  120.5036   91.2883 C   0  0  0  0  0  0  0  0  0  0  0  0
  120.0441  121.9892   91.1344 C   0  0  0  0  0  0  0  0  0  0  0  0
  120.1556  122.4730   89.6887 C   0  0  0  0  0  0  0  0  0  0  0  0
  118.8213  122.7457   89.1548 N   0  0  0  0  0  0  0  0  0  0  0  0
  118.6077  124.0560   88.1300 S   0  0  0  0  0  6  0  0  0  0  0  0
  118.7926  125.2638   88.9033 O   0  0  0  0  0  0  0  0  0  0  0  0
  117.3961  123.8016   87.3840 O   0  0  0  0  0  0  0  0  0  0  0  0
  119.9713  123.8727   87.0117 C   0  0  0  0  0  0  0  0  0  0  0  0
  119.7190  123.6050   85.6655 C   0  0  0  0  0  0  0  0  0  0  0  0
  120.7877  123.4450   84.7766 C   0  0  0  0  0  0  0  0  0  0  0  0
  122.1066  123.5594   85.2243 C   0  0  0  0  0  0  0  0  0  0  0  0
  123.2404  123.4110   84.3993 N   0  0  0  0  0  0  0  0  0  0  0  0
  123.3060  122.8641   83.1119 C   0  0  0  0  0  0  0  0  0  0  0  0
  122.3697  122.2750   82.5709 O   0  0  0  0  0  0  0  0  0  0  0  0
  124.6956  123.0196   82.4357 C   0  0  0  0  0  0  0  0  0  0  0  0
  125.3018  124.6838   82.5766 Cl  0  0  0  0  0  0  0  0  0  0  0  0
  125.8568  121.8981   83.2107 Cl  0  0  0  0  0  0  0  0  0  0  0  0
  124.5153  122.5764   80.7140 Cl  0  0  0  0  0  0  0  0  0  0  0  0
  122.3422  123.8417   86.5788 C   0  0  0  0  0  0  0  0  0  0  0  0
  121.2803  123.9996   87.4742 C   0  0  0  0  0  0  0  0  0  0  0  0
  119.9764  120.2371   93.4075 H   0  0  0  0  0  0  0  0  0  0  0  0
  120.2234  118.7523   92.4272 H   0  0  0  0  0  0  0  0  0  0  0  0
  121.4695  120.0461   92.4272 H   0  0  0  0  0  0  0  0  0  0  0  0
  120.0007  119.9796   90.3692 H   0  0  0  0  0  0  0  0  0  0  0  0
  118.6166  120.4403   91.4698 H   0  0  0  0  0  0  0  0  0  0  0  0
  119.2585  122.5763   91.6325 H   0  0  0  0  0  0  0  0  0  0  0  0
  121.0382  122.1257   91.5850 H   0  0  0  0  0  0  0  0  0  0  0  0
  120.7571  123.3934   89.6567 H   0  0  0  0  0  0  0  0  0  0  0  0
  120.6386  121.6941   89.0805 H   0  0  0  0  0  0  0  0  0  0  0  0
  118.5262  121.9059   88.6366 H   0  0  0  0  0  0  0  0  0  0  0  0
  118.6835  123.5201   85.3044 H   0  0  0  0  0  0  0  0  0  0  0  0
  120.5881  123.2275   83.7170 H   0  0  0  0  0  0  0  0  0  0  0  0
  124.1313  123.7466   84.7926 H   0  0  0  0  0  0  0  0  0  0  0  0
  123.3763  123.9401   86.9406 H   0  0  0  0  0  0  0  0  0  0  0  0
  121.4758  124.2219   88.5336 H   0  0  0  0  0  0  0  0  0  0  0  0
  1  2  1  0
  2  3  1  0
  3  4  1  0
  4  5  1  0
  5  6  1  0
  6  7  2  0
  6  8  2  0
  6  9  1  0
  9 10  2  0
 10 11  1  0
 11 12  2  0
 12 13  1  0
 13 14  1  0
 14 15  2  0
 14 16  1  0
 16 17  1  0
 16 18  1  0
 16 19  1  0
 12 20  1  0
 20 21  2  0
 21  9  1  0
  1 22  1  0
  1 23  1  0
  1 24  1  0
  2 25  1  0
  2 26  1  0
  3 27  1  0
  3 28  1  0
  4 29  1  0
  4 30  1  0
  5 31  1  0
 10 32  1  0
 11 33  1  0
 13 34  1  0
 20 35  1  0
 21 36  1  0
M  END
>  <loss>  (3) 
0.6057431101799011

>  <score>  (3) 
-2.3391001224517822

$$$$
BDZAJGMDKFYQCV-UHFFFAOYSA-N
     RDKit          3D

 36 36  0  0  0  0  0  0  0  0999 V2000
  120.2127  126.2053   91.4512 C   0  0  0  0  0  0  0  0  0  0  0  0
  118.9020  125.4883   91.1670 C   0  0  0  0  0  0  0  0  0  0  0  0
  118.9495  124.5939   89.9237 C   0  0  0  0  0  0  0  0  0  0  0  0
  118.7719  125.3305   88.5966 C   0  0  0  0  0  0  0  0  0  0  0  0
  118.2029  124.4275   87.5999 N   0  0  0  0  0  0  0  0  0  0  0  0
  118.0820  124.9039   85.9997 S   0  0  0  0  0  6  0  0  0  0  0  0
  118.1146  126.3488   85.9571 O   0  0  0  0  0  0  0  0  0  0  0  0
  116.9960  124.1444   85.4223 O   0  0  0  0  0  0  0  0  0  0  0  0
  119.5978  124.2952   85.3022 C   0  0  0  0  0  0  0  0  0  0  0  0
  120.6951  124.0747   86.1357 C   0  0  0  0  0  0  0  0  0  0  0  0
  121.8910  123.5882   85.5953 C   0  0  0  0  0  0  0  0  0  0  0  0
  121.9928  123.3099   84.2295 C   0  0  0  0  0  0  0  0  0  0  0  0
  123.1563  122.8160   83.6046 N   0  0  0  0  0  0  0  0  0  0  0  0
  124.4519  122.7382   84.1306 C   0  0  0  0  0  0  0  0  0  0  0  0
  124.7216  122.9450   85.3142 O   0  0  0  0  0  0  0  0  0  0  0  0
  125.5407  122.4184   83.0699 C   0  0  0  0  0  0  0  0  0  0  0  0
  125.6561  120.6716   82.7668 Cl  0  0  0  0  0  0  0  0  0  0  0  0
  127.0990  123.0380   83.6873 Cl  0  0  0  0  0  0  0  0  0  0  0  0
  125.1391  123.2610   81.5420 Cl  0  0  0  0  0  0  0  0  0  0  0  0
  120.8745  123.5214   83.4085 C   0  0  0  0  0  0  0  0  0  0  0  0
  119.6773  124.0104   83.9392 C   0  0  0  0  0  0  0  0  0  0  0  0
  120.3586  126.2852   92.5386 H   0  0  0  0  0  0  0  0  0  0  0  0
  121.0448  125.6368   91.0103 H   0  0  0  0  0  0  0  0  0  0  0  0
  120.1826  127.2127   91.0103 H   0  0  0  0  0  0  0  0  0  0  0  0
  118.6524  124.8623   92.0364 H   0  0  0  0  0  0  0  0  0  0  0  0
  118.1445  126.2632   90.9783 H   0  0  0  0  0  0  0  0  0  0  0  0
  119.9249  124.0856   89.9050 H   0  0  0  0  0  0  0  0  0  0  0  0
  118.0999  123.9003   90.0088 H   0  0  0  0  0  0  0  0  0  0  0  0
  118.0960  126.1862   88.7418 H   0  0  0  0  0  0  0  0  0  0  0  0
  119.7517  125.6866   88.2456 H   0  0  0  0  0  0  0  0  0  0  0  0
  118.7782  123.5733   87.6118 H   0  0  0  0  0  0  0  0  0  0  0  0
  120.6205  124.2825   87.2133 H   0  0  0  0  0  0  0  0  0  0  0  0
  122.7584  123.4234   86.2514 H   0  0  0  0  0  0  0  0  0  0  0  0
  123.0387  122.4694   82.6418 H   0  0  0  0  0  0  0  0  0  0  0  0
  120.9409  123.2994   82.3331 H   0  0  0  0  0  0  0  0  0  0  0  0
  118.8054  124.1691   83.2875 H   0  0  0  0  0  0  0  0  0  0  0  0
  1  2  1  0
  2  3  1  0
  3  4  1  0
  4  5  1  0
  5  6  1  0
  6  7  2  0
  6  8  2  0
  6  9  1  0
  9 10  2  0
 10 11  1  0
 11 12  2  0
 12 13  1  0
 13 14  1  0
 14 15  2  0
 14 16  1  0
 16 17  1  0
 16 18  1  0
 16 19  1  0
 12 20  1  0
 20 21  2  0
 21  9  1  0
  1 22  1  0
  1 23  1  0
  1 24  1  0
  2 25  1  0
  2 26  1  0
  3 27  1  0
  3 28  1  0
  4 29  1  0
  4 30  1  0
  5 31  1  0
 10 32  1  0
 11 33  1  0
 13 34  1  0
 20 35  1  0
 21 36  1  0
M  END
>  <loss>  (4) 
0.5841747522354126

>  <score>  (4) 
-7.897252559661865

$$$$
BDZAJGMDKFYQCV-UHFFFAOYSA-N
     RDKit          3D

 36 36  0  0  0  0  0  0  0  0999 V2000
  121.9547  129.8087   83.4316 C   0  0  0  0  0  0  0  0  0  0  0  0
  121.6529  128.4236   82.8810 C   0  0  0  0  0  0  0  0  0  0  0  0
  120.6126  127.6516   83.6996 C   0  0  0  0  0  0  0  0  0  0  0  0
  120.2948  126.2515   83.1759 C   0  0  0  0  0  0  0  0  0  0  0  0
  121.4815  125.6744   82.5503 N   0  0  0  0  0  0  0  0  0  0  0  0
  121.6417  124.0137   82.4145 S   0  0  0  0  0  6  0  0  0  0  0  0
  120.3460  123.4624   82.0860 O   0  0  0  0  0  0  0  0  0  0  0  0
  122.8066  123.7757   81.5924 O   0  0  0  0  0  0  0  0  0  0  0  0
  122.0442  123.5295   84.0753 C   0  0  0  0  0  0  0  0  0  0  0  0
  123.3148  123.0232   84.3521 C   0  0  0  0  0  0  0  0  0  0  0  0
  123.6376  122.6324   85.6566 C   0  0  0  0  0  0  0  0  0  0  0  0
  122.6947  122.7337   86.6832 C   0  0  0  0  0  0  0  0  0  0  0  0
  122.9352  122.3609   88.0216 N   0  0  0  0  0  0  0  0  0  0  0  0
  124.0792  121.7559   88.5570 C   0  0  0  0  0  0  0  0  0  0  0  0
  125.2198  121.9664   88.1430 O   0  0  0  0  0  0  0  0  0  0  0  0
  123.7887  120.8273   89.7677 C   0  0  0  0  0  0  0  0  0  0  0  0
  123.5966  121.8619   91.2120 Cl  0  0  0  0  0  0  0  0  0  0  0  0
  125.1069  119.6637   90.0222 Cl  0  0  0  0  0  0  0  0  0  0  0  0
  122.2613  119.9399   89.4754 Cl  0  0  0  0  0  0  0  0  0  0  0  0
  121.4162  123.2292   86.3841 C   0  0  0  0  0  0  0  0  0  0  0  0
  121.0864  123.6251   85.0847 C   0  0  0  0  0  0  0  0  0  0  0  0
  121.9475  129.7758   84.5311 H   0  0  0  0  0  0  0  0  0  0  0  0
  122.9450  130.1348   83.0810 H   0  0  0  0  0  0  0  0  0  0  0  0
  121.1899  130.5173   83.0810 H   0  0  0  0  0  0  0  0  0  0  0  0
  121.2758  128.5324   81.8534 H   0  0  0  0  0  0  0  0  0  0  0  0
  122.5893  127.8481   82.9242 H   0  0  0  0  0  0  0  0  0  0  0  0
  120.9901  127.5546   84.7282 H   0  0  0  0  0  0  0  0  0  0  0  0
  119.6773  128.2267   83.6327 H   0  0  0  0  0  0  0  0  0  0  0  0
  119.9763  125.6126   84.0127 H   0  0  0  0  0  0  0  0  0  0  0  0
  119.4882  126.3176   82.4309 H   0  0  0  0  0  0  0  0  0  0  0  0
  121.5270  126.0553   81.5944 H   0  0  0  0  0  0  0  0  0  0  0  0
  124.0598  122.9317   83.5480 H   0  0  0  0  0  0  0  0  0  0  0  0
  124.6424  122.2421   85.8759 H   0  0  0  0  0  0  0  0  0  0  0  0
  122.1752  122.5580   88.6884 H   0  0  0  0  0  0  0  0  0  0  0  0
  120.6638  123.3070   87.1827 H   0  0  0  0  0  0  0  0  0  0  0  0
  120.0802  124.0086   84.8601 H   0  0  0  0  0  0  0  0  0  0  0  0
  1  2  1  0
  2  3  1  0
  3  4  1  0
  4  5  1  0
  5  6  1  0
  6  7  2  0
  6  8  2  0
  6  9  1  0
  9 10  2  0
 10 11  1  0
 11 12  2  0
 12 13  1  0
 13 14  1  0
 14 15  2  0
 14 16  1  0
 16 17  1  0
 16 18  1  0
 16 19  1  0
 12 20  1  0
 20 21  2  0
 21  9  1  0
  1 22  1  0
  1 23  1  0
  1 24  1  0
  2 25  1  0
  2 26  1  0
  3 27  1  0
  3 28  1  0
  4 29  1  0
  4 30  1  0
  5 31  1  0
 10 32  1  0
 11 33  1  0
 13 34  1  0
 20 35  1  0
 21 36  1  0
M  END
>  <loss>  (5) 
0.6249696612358093

>  <score>  (5) 
-8.851984024047852

$$$$
BDZAJGMDKFYQCV-UHFFFAOYSA-N
     RDKit          3D

 36 36  0  0  0  0  0  0  0  0999 V2000
  119.8860  126.9174   91.1313 C   0  0  0  0  0  0  0  0  0  0  0  0
  118.6806  126.0439   90.8204 C   0  0  0  0  0  0  0  0  0  0  0  0
  118.9720  124.9366   89.8021 C   0  0  0  0  0  0  0  0  0  0  0  0
  118.9710  125.3908   88.3429 C   0  0  0  0  0  0  0  0  0  0  0  0
  118.1518  124.4854   87.5418 N   0  0  0  0  0  0  0  0  0  0  0  0
  117.9622  124.7477   85.8994 S   0  0  0  0  0  6  0  0  0  0  0  0
  117.8503  126.1728   85.6818 O   0  0  0  0  0  0  0  0  0  0  0  0
  116.9492  123.8214   85.4462 O   0  0  0  0  0  0  0  0  0  0  0  0
  119.5213  124.2080   85.2417 C   0  0  0  0  0  0  0  0  0  0  0  0
  120.5504  123.8599   86.1176 C   0  0  0  0  0  0  0  0  0  0  0  0
  121.7795  123.4265   85.6077 C   0  0  0  0  0  0  0  0  0  0  0  0
  121.9822  123.3280   84.2283 C   0  0  0  0  0  0  0  0  0  0  0  0
  123.1855  122.8989   83.6314 N   0  0  0  0  0  0  0  0  0  0  0  0
  124.4540  122.8045   84.2174 C   0  0  0  0  0  0  0  0  0  0  0  0
  124.6921  123.1187   85.3840 O   0  0  0  0  0  0  0  0  0  0  0  0
  125.5598  122.3151   83.2423 C   0  0  0  0  0  0  0  0  0  0  0  0
  127.0678  121.9464   84.1061 Cl  0  0  0  0  0  0  0  0  0  0  0  0
  125.8403  123.6114   82.0447 Cl  0  0  0  0  0  0  0  0  0  0  0  0
  124.9874  120.8465   82.3930 Cl  0  0  0  0  0  0  0  0  0  0  0  0
  120.9312  123.6659   83.3620 C   0  0  0  0  0  0  0  0  0  0  0  0
  119.7014  124.1031   83.8627 C   0  0  0  0  0  0  0  0  0  0  0  0
  120.0050  127.0036   92.2214 H   0  0  0  0  0  0  0  0  0  0  0  0
  120.7895  126.4629   90.6986 H   0  0  0  0  0  0  0  0  0  0  0  0
  119.7355  127.9175   90.6986 H   0  0  0  0  0  0  0  0  0  0  0  0
  118.3400  125.5756   91.7556 H   0  0  0  0  0  0  0  0  0  0  0  0
  117.9147  126.6970   90.3766 H   0  0  0  0  0  0  0  0  0  0  0  0
  119.9626  124.5155   90.0287 H   0  0  0  0  0  0  0  0  0  0  0  0
  118.1565  124.2047   89.8989 H   0  0  0  0  0  0  0  0  0  0  0  0
  118.5597  126.4089   88.2779 H   0  0  0  0  0  0  0  0  0  0  0  0
  120.0021  125.3815   87.9597 H   0  0  0  0  0  0  0  0  0  0  0  0
  118.5607  123.5458   87.6462 H   0  0  0  0  0  0  0  0  0  0  0  0
  120.3960  123.9258   87.2047 H   0  0  0  0  0  0  0  0  0  0  0  0
  122.5933  123.1610   86.2986 H   0  0  0  0  0  0  0  0  0  0  0  0
  123.1238  122.6205   82.6417 H   0  0  0  0  0  0  0  0  0  0  0  0
  121.0770  123.5858   82.2747 H   0  0  0  0  0  0  0  0  0  0  0  0
  118.8829  124.3620   83.1750 H   0  0  0  0  0  0  0  0  0  0  0  0
  1  2  1  0
  2  3  1  0
  3  4  1  0
  4  5  1  0
  5  6  1  0
  6  7  2  0
  6  8  2  0
  6  9  1  0
  9 10  2  0
 10 11  1  0
 11 12  2  0
 12 13  1  0
 13 14  1  0
 14 15  2  0
 14 16  1  0
 16 17  1  0
 16 18  1  0
 16 19  1  0
 12 20  1  0
 20 21  2  0
 21  9  1  0
  1 22  1  0
  1 23  1  0
  1 24  1  0
  2 25  1  0
  2 26  1  0
  3 27  1  0
  3 28  1  0
  4 29  1  0
  4 30  1  0
  5 31  1  0
 10 32  1  0
 11 33  1  0
 13 34  1  0
 20 35  1  0
 21 36  1  0
M  END
>  <loss>  (6) 
0.583285391330719

>  <score>  (6) 
-10.24695110321045

$$$$
BDZAJGMDKFYQCV-UHFFFAOYSA-N
     RDKit          3D

 36 36  0  0  0  0  0  0  0  0999 V2000
  119.7147  121.7949   92.2687 C   0  0  0  0  0  0  0  0  0  0  0  0
  119.1225  122.1481   90.9130 C   0  0  0  0  0  0  0  0  0  0  0  0
  118.9471  123.6550   90.6950 C   0  0  0  0  0  0  0  0  0  0  0  0
  119.2603  124.1368   89.2786 C   0  0  0  0  0  0  0  0  0  0  0  0
  118.2141  123.6863   88.3610 N   0  0  0  0  0  0  0  0  0  0  0  0
  118.0242  124.4760   86.8936 S   0  0  0  0  0  6  0  0  0  0  0  0
  117.9254  125.8941   87.1580 O   0  0  0  0  0  0  0  0  0  0  0  0
  116.9996  123.7581   86.1696 O   0  0  0  0  0  0  0  0  0  0  0  0
  119.5727  124.1445   86.0961 C   0  0  0  0  0  0  0  0  0  0  0  0
  119.6022  123.9569   84.7135 C   0  0  0  0  0  0  0  0  0  0  0  0
  120.8165  123.6813   84.0753 C   0  0  0  0  0  0  0  0  0  0  0  0
  122.0024  123.6006   84.8103 C   0  0  0  0  0  0  0  0  0  0  0  0
  123.2665  123.3256   84.2495 N   0  0  0  0  0  0  0  0  0  0  0  0
  123.5559  122.6060   83.0835 C   0  0  0  0  0  0  0  0  0  0  0  0
  122.7058  122.0174   82.4148 O   0  0  0  0  0  0  0  0  0  0  0  0
  125.0678  122.5689   82.7298 C   0  0  0  0  0  0  0  0  0  0  0  0
  125.3289  122.0227   81.0594 Cl  0  0  0  0  0  0  0  0  0  0  0  0
  125.7608  124.2077   82.9328 Cl  0  0  0  0  0  0  0  0  0  0  0  0
  125.8665  121.4510   83.8724 Cl  0  0  0  0  0  0  0  0  0  0  0  0
  121.9567  123.8046   86.1982 C   0  0  0  0  0  0  0  0  0  0  0  0
  120.7472  124.0770   86.8441 C   0  0  0  0  0  0  0  0  0  0  0  0
  119.0636  122.1832   93.0657 H   0  0  0  0  0  0  0  0  0  0  0  0
  119.7943  120.7016   92.3604 H   0  0  0  0  0  0  0  0  0  0  0  0
  120.7146  122.2443   92.3604 H   0  0  0  0  0  0  0  0  0  0  0  0
  119.7895  121.7586   90.1298 H   0  0  0  0  0  0  0  0  0  0  0  0
  118.1203  121.6968   90.8708 H   0  0  0  0  0  0  0  0  0  0  0  0
  117.9025  123.9146   90.9219 H   0  0  0  0  0  0  0  0  0  0  0  0
  119.6705  124.1510   91.3588 H   0  0  0  0  0  0  0  0  0  0  0  0
  119.3072  125.2357   89.2683 H   0  0  0  0  0  0  0  0  0  0  0  0
  120.2278  123.7223   88.9589 H   0  0  0  0  0  0  0  0  0  0  0  0
  118.4044  122.6966   88.1488 H   0  0  0  0  0  0  0  0  0  0  0  0
  118.6739  124.0255   84.1274 H   0  0  0  0  0  0  0  0  0  0  0  0
  120.8379  123.5270   82.9864 H   0  0  0  0  0  0  0  0  0  0  0  0
  124.0780  123.7006   84.7611 H   0  0  0  0  0  0  0  0  0  0  0  0
  122.8852  123.7496   86.7855 H   0  0  0  0  0  0  0  0  0  0  0  0
  120.7225  124.2365   87.9322 H   0  0  0  0  0  0  0  0  0  0  0  0
  1  2  1  0
  2  3  1  0
  3  4  1  0
  4  5  1  0
  5  6  1  0
  6  7  2  0
  6  8  2  0
  6  9  1  0
  9 10  2  0
 10 11  1  0
 11 12  2  0
 12 13  1  0
 13 14  1  0
 14 15  2  0
 14 16  1  0
 16 17  1  0
 16 18  1  0
 16 19  1  0
 12 20  1  0
 20 21  2  0
 21  9  1  0
  1 22  1  0
  1 23  1  0
  1 24  1  0
  2 25  1  0
  2 26  1  0
  3 27  1  0
  3 28  1  0
  4 29  1  0
  4 30  1  0
  5 31  1  0
 10 32  1  0
 11 33  1  0
 13 34  1  0
 20 35  1  0
 21 36  1  0
M  END
>  <loss>  (7) 
0.5765846371650696

>  <score>  (7) 
-12.191998481750488

$$$$
BDZAJGMDKFYQCV-UHFFFAOYSA-N
     RDKit          3D

 36 36  0  0  0  0  0  0  0  0999 V2000
  120.5581  122.4805   92.6316 C   0  0  0  0  0  0  0  0  0  0  0  0
  119.8187  122.2002   91.3326 C   0  0  0  0  0  0  0  0  0  0  0  0
  119.2903  123.4626   90.6431 C   0  0  0  0  0  0  0  0  0  0  0  0
  118.6607  123.2279   89.2705 C   0  0  0  0  0  0  0  0  0  0  0  0
  118.4946  124.5018   88.5763 N   0  0  0  0  0  0  0  0  0  0  0  0
  118.0585  124.5326   86.9604 S   0  0  0  0  0  6  0  0  0  0  0  0
  117.1508  123.4334   86.7187 O   0  0  0  0  0  0  0  0  0  0  0  0
  117.7051  125.9001   86.6527 O   0  0  0  0  0  0  0  0  0  0  0  0
  119.5931  124.1735   86.1414 C   0  0  0  0  0  0  0  0  0  0  0  0
  119.5980  123.9483   84.7643 C   0  0  0  0  0  0  0  0  0  0  0  0
  120.8018  123.6573   84.1124 C   0  0  0  0  0  0  0  0  0  0  0  0
  121.9983  123.5787   84.8304 C   0  0  0  0  0  0  0  0  0  0  0  0
  123.2522  123.2888   84.2543 N   0  0  0  0  0  0  0  0  0  0  0  0
  123.5184  122.5668   83.0842 C   0  0  0  0  0  0  0  0  0  0  0  0
  122.6464  122.0295   82.4005 O   0  0  0  0  0  0  0  0  0  0  0  0
  125.0202  122.5472   82.6878 C   0  0  0  0  0  0  0  0  0  0  0  0
  125.6056  124.2356   82.6943 Cl  0  0  0  0  0  0  0  0  0  0  0  0
  125.2565  121.8261   81.0815 Cl  0  0  0  0  0  0  0  0  0  0  0  0
  125.9371  121.6045   83.9028 Cl  0  0  0  0  0  0  0  0  0  0  0  0
  121.9728  123.7912   86.2173 C   0  0  0  0  0  0  0  0  0  0  0  0
  120.7755  124.0858   86.8759 C   0  0  0  0  0  0  0  0  0  0  0  0
  119.9080  122.2341   93.4841 H   0  0  0  0  0  0  0  0  0  0  0  0
  121.4689  121.8652   92.6752 H   0  0  0  0  0  0  0  0  0  0  0  0
  120.8322  123.5449   92.6752 H   0  0  0  0  0  0  0  0  0  0  0  0
  120.5076  121.6900   90.6434 H   0  0  0  0  0  0  0  0  0  0  0  0
  118.9453  121.5811   91.5855 H   0  0  0  0  0  0  0  0  0  0  0  0
  118.5294  123.9157   91.2956 H   0  0  0  0  0  0  0  0  0  0  0  0
  120.1623  124.1122   90.4766 H   0  0  0  0  0  0  0  0  0  0  0  0
  119.3139  122.5713   88.6769 H   0  0  0  0  0  0  0  0  0  0  0  0
  117.6763  122.7543   89.3995 H   0  0  0  0  0  0  0  0  0  0  0  0
  117.7705  125.0257   89.0883 H   0  0  0  0  0  0  0  0  0  0  0  0
  118.6592  123.9993   84.1932 H   0  0  0  0  0  0  0  0  0  0  0  0
  120.8063  123.4891   83.0253 H   0  0  0  0  0  0  0  0  0  0  0  0
  124.0744  123.6534   84.7563 H   0  0  0  0  0  0  0  0  0  0  0  0
  122.9074  123.7252   86.7938 H   0  0  0  0  0  0  0  0  0  0  0  0
  120.7660  124.2471   87.9640 H   0  0  0  0  0  0  0  0  0  0  0  0
  1  2  1  0
  2  3  1  0
  3  4  1  0
  4  5  1  0
  5  6  1  0
  6  7  2  0
  6  8  2  0
  6  9  1  0
  9 10  2  0
 10 11  1  0
 11 12  2  0
 12 13  1  0
 13 14  1  0
 14 15  2  0
 14 16  1  0
 16 17  1  0
 16 18  1  0
 16 19  1  0
 12 20  1  0
 20 21  2  0
 21  9  1  0
  1 22  1  0
  1 23  1  0
  1 24  1  0
  2 25  1  0
  2 26  1  0
  3 27  1  0
  3 28  1  0
  4 29  1  0
  4 30  1  0
  5 31  1  0
 10 32  1  0
 11 33  1  0
 13 34  1  0
 20 35  1  0
 21 36  1  0
M  END
>  <loss>  (8) 
0.5729371905326843

>  <score>  (8) 
-12.674304962158203

$$$$
BDZAJGMDKFYQCV-UHFFFAOYSA-N
     RDKit          3D

 36 36  0  0  0  0  0  0  0  0999 V2000
  120.5011  122.4238   92.6368 C   0  0  0  0  0  0  0  0  0  0  0  0
  119.7990  122.1705   91.3123 C   0  0  0  0  0  0  0  0  0  0  0  0
  119.3613  123.4769   90.6518 C   0  0  0  0  0  0  0  0  0  0  0  0
  118.6793  123.2203   89.3101 C   0  0  0  0  0  0  0  0  0  0  0  0
  118.5400  124.4928   88.6002 N   0  0  0  0  0  0  0  0  0  0  0  0
  118.0577  124.4668   86.9921 S   0  0  0  0  0  6  0  0  0  0  0  0
  117.1735  123.3377   86.8068 O   0  0  0  0  0  0  0  0  0  0  0  0
  117.6556  125.8157   86.6629 O   0  0  0  0  0  0  0  0  0  0  0  0
  119.5871  124.1450   86.1543 C   0  0  0  0  0  0  0  0  0  0  0  0
  120.7703  124.0129   86.8801 C   0  0  0  0  0  0  0  0  0  0  0  0
  121.9651  123.7511   86.2029 C   0  0  0  0  0  0  0  0  0  0  0  0
  121.9870  123.6174   84.8059 C   0  0  0  0  0  0  0  0  0  0  0  0
  123.2388  123.3555   84.2120 N   0  0  0  0  0  0  0  0  0  0  0  0
  123.5136  122.5640   83.0899 C   0  0  0  0  0  0  0  0  0  0  0  0
  122.6446  122.0226   82.4058 O   0  0  0  0  0  0  0  0  0  0  0  0
  125.0254  122.4675   82.7471 C   0  0  0  0  0  0  0  0  0  0  0  0
  125.8649  121.5563   84.0401 Cl  0  0  0  0  0  0  0  0  0  0  0  0
  125.6773  124.1302   82.6862 Cl  0  0  0  0  0  0  0  0  0  0  0  0
  125.2860  121.6534   81.1894 Cl  0  0  0  0  0  0  0  0  0  0  0  0
  120.7904  123.7452   84.0955 C   0  0  0  0  0  0  0  0  0  0  0  0
  119.5896  124.0047   84.7659 C   0  0  0  0  0  0  0  0  0  0  0  0
  119.8206  122.1783   93.4654 H   0  0  0  0  0  0  0  0  0  0  0  0
  121.4002  121.7933   92.7016 H   0  0  0  0  0  0  0  0  0  0  0  0
  120.7906  123.4830   92.7016 H   0  0  0  0  0  0  0  0  0  0  0  0
  120.4885  121.6423   90.6374 H   0  0  0  0  0  0  0  0  0  0  0  0
  118.9016  121.5650   91.5076 H   0  0  0  0  0  0  0  0  0  0  0  0
  118.6569  123.9965   91.3180 H   0  0  0  0  0  0  0  0  0  0  0  0
  120.2557  124.0920   90.4740 H   0  0  0  0  0  0  0  0  0  0  0  0
  119.2898  122.5281   88.7115 H   0  0  0  0  0  0  0  0  0  0  0  0
  117.6876  122.7738   89.4745 H   0  0  0  0  0  0  0  0  0  0  0  0
  117.8472  125.0540   89.1160 H   0  0  0  0  0  0  0  0  0  0  0  0
  120.7637  124.1136   87.9754 H   0  0  0  0  0  0  0  0  0  0  0  0
  122.9004  123.6487   86.7726 H   0  0  0  0  0  0  0  0  0  0  0  0
  124.0523  123.8019   84.6591 H   0  0  0  0  0  0  0  0  0  0  0  0
  120.7923  123.6409   83.0005 H   0  0  0  0  0  0  0  0  0  0  0  0
  118.6508  124.0977   84.2002 H   0  0  0  0  0  0  0  0  0  0  0  0
  1  2  1  0
  2  3  1  0
  3  4  1  0
  4  5  1  0
  5  6  1  0
  6  7  2  0
  6  8  2  0
  6  9  1  0
  9 10  2  0
 10 11  1  0
 11 12  2  0
 12 13  1  0
 13 14  1  0
 14 15  2  0
 14 16  1  0
 16 17  1  0
 16 18  1  0
 16 19  1  0
 12 20  1  0
 20 21  2  0
 21  9  1  0
  1 22  1  0
  1 23  1  0
  1 24  1  0
  2 25  1  0
  2 26  1  0
  3 27  1  0
  3 28  1  0
  4 29  1  0
  4 30  1  0
  5 31  1  0
 10 32  1  0
 11 33  1  0
 13 34  1  0
 20 35  1  0
 21 36  1  0
M  END
>  <loss>  (9) 
0.5695855617523193

>  <score>  (9) 
-13.004158020019531

$$$$
BDZAJGMDKFYQCV-UHFFFAOYSA-N
     RDKit          3D

 36 36  0  0  0  0  0  0  0  0999 V2000
  118.4566  121.0113   91.3823 C   0  0  0  0  0  0  0  0  0  0  0  0
  117.7750  122.1759   90.6805 C   0  0  0  0  0  0  0  0  0  0  0  0
  118.6268  123.4494   90.6388 C   0  0  0  0  0  0  0  0  0  0  0  0
  119.0683  123.8777   89.2395 C   0  0  0  0  0  0  0  0  0  0  0  0
  117.9395  123.7809   88.3143 N   0  0  0  0  0  0  0  0  0  0  0  0
  117.9481  124.7138   86.9205 S   0  0  0  0  0  6  0  0  0  0  0  0
  117.9962  126.1046   87.3132 O   0  0  0  0  0  0  0  0  0  0  0  0
  116.9014  124.1932   86.0705 O   0  0  0  0  0  0  0  0  0  0  0  0
  119.5006  124.2668   86.1899 C   0  0  0  0  0  0  0  0  0  0  0  0
  119.5650  124.0272   84.8166 C   0  0  0  0  0  0  0  0  0  0  0  0
  120.7820  123.6606   84.2315 C   0  0  0  0  0  0  0  0  0  0  0  0
  121.9362  123.5404   85.0100 C   0  0  0  0  0  0  0  0  0  0  0  0
  123.2004  123.1744   84.5039 N   0  0  0  0  0  0  0  0  0  0  0  0
  123.5098  122.6727   83.2337 C   0  0  0  0  0  0  0  0  0  0  0  0
  122.6662  122.2566   82.4390 O   0  0  0  0  0  0  0  0  0  0  0  0
  125.0323  122.6362   82.9288 C   0  0  0  0  0  0  0  0  0  0  0  0
  125.3541  121.9595   81.3177 Cl  0  0  0  0  0  0  0  0  0  0  0  0
  125.6907  124.2993   83.0156 Cl  0  0  0  0  0  0  0  0  0  0  0  0
  125.8142  121.6318   84.1829 Cl  0  0  0  0  0  0  0  0  0  0  0  0
  121.8565  123.7976   86.3875 C   0  0  0  0  0  0  0  0  0  0  0  0
  120.6439  124.1610   86.9807 C   0  0  0  0  0  0  0  0  0  0  0  0
  118.3792  121.1436   92.4715 H   0  0  0  0  0  0  0  0  0  0  0  0
  117.9666  120.0704   91.0914 H   0  0  0  0  0  0  0  0  0  0  0  0
  119.5169  120.9777   91.0914 H   0  0  0  0  0  0  0  0  0  0  0  0
  117.5485  121.8749   89.6470 H   0  0  0  0  0  0  0  0  0  0  0  0
  116.8675  122.4129   91.2551 H   0  0  0  0  0  0  0  0  0  0  0  0
  118.0394  124.2689   91.0785 H   0  0  0  0  0  0  0  0  0  0  0  0
  119.5464  123.2263   91.1998 H   0  0  0  0  0  0  0  0  0  0  0  0
  119.4265  124.9173   89.2715 H   0  0  0  0  0  0  0  0  0  0  0  0
  119.8784  123.2178   88.8956 H   0  0  0  0  0  0  0  0  0  0  0  0
  117.8757  122.7964   88.0181 H   0  0  0  0  0  0  0  0  0  0  0  0
  118.6621  124.1262   84.1962 H   0  0  0  0  0  0  0  0  0  0  0  0
  120.8305  123.4654   83.1501 H   0  0  0  0  0  0  0  0  0  0  0  0
  123.9952  123.2906   85.1488 H   0  0  0  0  0  0  0  0  0  0  0  0
  122.7603  123.7120   87.0087 H   0  0  0  0  0  0  0  0  0  0  0  0
  120.5923  124.3615   88.0610 H   0  0  0  0  0  0  0  0  0  0  0  0
  1  2  1  0
  2  3  1  0
  3  4  1  0
  4  5  1  0
  5  6  1  0
  6  7  2  0
  6  8  2  0
  6  9  1  0
  9 10  2  0
 10 11  1  0
 11 12  2  0
 12 13  1  0
 13 14  1  0
 14 15  2  0
 14 16  1  0
 16 17  1  0
 16 18  1  0
 16 19  1  0
 12 20  1  0
 20 21  2  0
 21  9  1  0
  1 22  1  0
  1 23  1  0
  1 24  1  0
  2 25  1  0
  2 26  1  0
  3 27  1  0
  3 28  1  0
  4 29  1  0
  4 30  1  0
  5 31  1  0
 10 32  1  0
 11 33  1  0
 13 34  1  0
 20 35  1  0
 21 36  1  0
M  END
>  <loss>  (10) 
0.583870530128479

>  <score>  (10) 
-13.173322677612305

$$$$
BDZAJGMDKFYQCV-UHFFFAOYSA-N
     RDKit          3D

 36 36  0  0  0  0  0  0  0  0999 V2000
  120.2449  126.1251   92.0604 C   0  0  0  0  0  0  0  0  0  0  0  0
  119.4968  126.5122   90.7948 C   0  0  0  0  0  0  0  0  0  0  0  0
  118.9313  125.2852   90.0810 C   0  0  0  0  0  0  0  0  0  0  0  0
  118.5776  125.6005   88.6294 C   0  0  0  0  0  0  0  0  0  0  0  0
  118.0134  124.4035   88.0090 N   0  0  0  0  0  0  0  0  0  0  0  0
  117.7889  124.3417   86.3498 S   0  0  0  0  0  6  0  0  0  0  0  0
  117.3639  125.6474   85.8988 O   0  0  0  0  0  0  0  0  0  0  0  0
  117.0121  123.1504   86.0872 O   0  0  0  0  0  0  0  0  0  0  0  0
  119.4361  124.0546   85.7487 C   0  0  0  0  0  0  0  0  0  0  0  0
  119.7230  124.2186   84.3931 C   0  0  0  0  0  0  0  0  0  0  0  0
  121.0192  123.9774   83.9232 C   0  0  0  0  0  0  0  0  0  0  0  0
  122.0264  123.5592   84.7971 C   0  0  0  0  0  0  0  0  0  0  0  0
  123.3549  123.2916   84.4075 N   0  0  0  0  0  0  0  0  0  0  0  0
  123.8023  122.6754   83.2321 C   0  0  0  0  0  0  0  0  0  0  0  0
  123.0531  122.3054   82.3275 O   0  0  0  0  0  0  0  0  0  0  0  0
  125.3475  122.5457   83.1418 C   0  0  0  0  0  0  0  0  0  0  0  0
  125.8380  120.9312   83.7408 Cl  0  0  0  0  0  0  0  0  0  0  0  0
  126.0606  123.8012   84.1950 Cl  0  0  0  0  0  0  0  0  0  0  0  0
  125.9189  122.7538   81.4726 Cl  0  0  0  0  0  0  0  0  0  0  0  0
  121.7162  123.3793   86.1537 C   0  0  0  0  0  0  0  0  0  0  0  0
  120.4254  123.6223   86.6323 C   0  0  0  0  0  0  0  0  0  0  0  0
  119.6586  126.4285   92.9402 H   0  0  0  0  0  0  0  0  0  0  0  0
  120.3960  125.0356   92.0783 H   0  0  0  0  0  0  0  0  0  0  0  0
  121.2215  126.6310   92.0783 H   0  0  0  0  0  0  0  0  0  0  0  0
  118.6678  127.1845   91.0611 H   0  0  0  0  0  0  0  0  0  0  0  0
  120.2032  127.0116   90.1154 H   0  0  0  0  0  0  0  0  0  0  0  0
  119.6824  124.4819   90.1003 H   0  0  0  0  0  0  0  0  0  0  0  0
  118.0138  124.9734   90.6016 H   0  0  0  0  0  0  0  0  0  0  0  0
  117.8395  126.4156   88.5978 H   0  0  0  0  0  0  0  0  0  0  0  0
  119.4811  125.9121   88.0848 H   0  0  0  0  0  0  0  0  0  0  0  0
  118.6369  123.6208   88.2534 H   0  0  0  0  0  0  0  0  0  0  0  0
  118.9334  124.5363   83.6963 H   0  0  0  0  0  0  0  0  0  0  0  0
  121.2472  124.1184   82.8563 H   0  0  0  0  0  0  0  0  0  0  0  0
  124.0871  123.5859   85.0695 H   0  0  0  0  0  0  0  0  0  0  0  0
  122.4988  123.0429   86.8496 H   0  0  0  0  0  0  0  0  0  0  0  0
  120.1916  123.4738   87.6969 H   0  0  0  0  0  0  0  0  0  0  0  0
  1  2  1  0
  2  3  1  0
  3  4  1  0
  4  5  1  0
  5  6  1  0
  6  7  2  0
  6  8  2  0
  6  9  1  0
  9 10  2  0
 10 11  1  0
 11 12  2  0
 12 13  1  0
 13 14  1  0
 14 15  2  0
 14 16  1  0
 16 17  1  0
 16 18  1  0
 16 19  1  0
 12 20  1  0
 20 21  2  0
 21  9  1  0
  1 22  1  0
  1 23  1  0
  1 24  1  0
  2 25  1  0
  2 26  1  0
  3 27  1  0
  3 28  1  0
  4 29  1  0
  4 30  1  0
  5 31  1  0
 10 32  1  0
 11 33  1  0
 13 34  1  0
 20 35  1  0
 21 36  1  0
M  END
>  <loss>  (11) 
0.5785901546478271

>  <score>  (11) 
-13.212214469909668

$$$$
BDZAJGMDKFYQCV-UHFFFAOYSA-N
     RDKit          3D

 36 36  0  0  0  0  0  0  0  0999 V2000
  118.7220  128.9697   89.5932 C   0  0  0  0  0  0  0  0  0  0  0  0
  118.4430  128.7829   88.1100 C   0  0  0  0  0  0  0  0  0  0  0  0
  119.1759  127.5865   87.4940 C   0  0  0  0  0  0  0  0  0  0  0  0
  118.4117  126.2645   87.5572 C   0  0  0  0  0  0  0  0  0  0  0  0
  117.7023  126.0409   86.3005 N   0  0  0  0  0  0  0  0  0  0  0  0
  117.5946  124.5006   85.6539 S   0  0  0  0  0  6  0  0  0  0  0  0
  117.1057  123.6131   86.6854 O   0  0  0  0  0  0  0  0  0  0  0  0
  116.9287  124.6326   84.3777 O   0  0  0  0  0  0  0  0  0  0  0  0
  119.2951  124.0972   85.3370 C   0  0  0  0  0  0  0  0  0  0  0  0
  119.7673  124.1045   84.0239 C   0  0  0  0  0  0  0  0  0  0  0  0
  121.1040  123.7806   83.7648 C   0  0  0  0  0  0  0  0  0  0  0  0
  121.9680  123.4385   84.8087 C   0  0  0  0  0  0  0  0  0  0  0  0
  123.3252  123.0970   84.6364 N   0  0  0  0  0  0  0  0  0  0  0  0
  123.9530  122.6098   83.4831 C   0  0  0  0  0  0  0  0  0  0  0  0
  123.3887  122.4980   82.3943 O   0  0  0  0  0  0  0  0  0  0  0  0
  125.4553  122.2697   83.6836 C   0  0  0  0  0  0  0  0  0  0  0  0
  126.4016  123.3309   82.6011 Cl  0  0  0  0  0  0  0  0  0  0  0  0
  125.7886  120.5651   83.3105 Cl  0  0  0  0  0  0  0  0  0  0  0  0
  125.9133  122.6066   85.3814 Cl  0  0  0  0  0  0  0  0  0  0  0  0
  121.4724  123.4198   86.1215 C   0  0  0  0  0  0  0  0  0  0  0  0
  120.1396  123.7453   86.3897 C   0  0  0  0  0  0  0  0  0  0  0  0
  117.9487  128.4521   90.1798 H   0  0  0  0  0  0  0  0  0  0  0  0
  119.7091  128.5496   89.8364 H   0  0  0  0  0  0  0  0  0  0  0  0
  118.7100  130.0424   89.8364 H   0  0  0  0  0  0  0  0  0  0  0  0
  117.3613  128.6350   87.9755 H   0  0  0  0  0  0  0  0  0  0  0  0
  118.8088  129.6845   87.5968 H   0  0  0  0  0  0  0  0  0  0  0  0
  119.3767  127.8155   86.4370 H   0  0  0  0  0  0  0  0  0  0  0  0
  120.0902  127.4441   88.0888 H   0  0  0  0  0  0  0  0  0  0  0  0
  119.1208  125.4410   87.7274 H   0  0  0  0  0  0  0  0  0  0  0  0
  117.6847  126.3051   88.3816 H   0  0  0  0  0  0  0  0  0  0  0  0
  116.7368  126.3702   86.4430 H   0  0  0  0  0  0  0  0  0  0  0  0
  119.0915  124.3637   83.1956 H   0  0  0  0  0  0  0  0  0  0  0  0
  121.4779  123.7955   82.7304 H   0  0  0  0  0  0  0  0  0  0  0  0
  123.9298  123.2213   85.4609 H   0  0  0  0  0  0  0  0  0  0  0  0
  122.1415  123.1454   86.9504 H   0  0  0  0  0  0  0  0  0  0  0  0
  119.7603  123.7240   87.4220 H   0  0  0  0  0  0  0  0  0  0  0  0
  1  2  1  0
  2  3  1  0
  3  4  1  0
  4  5  1  0
  5  6  1  0
  6  7  2  0
  6  8  2  0
  6  9  1  0
  9 10  2  0
 10 11  1  0
 11 12  2  0
 12 13  1  0
 13 14  1  0
 14 15  2  0
 14 16  1  0
 16 17  1  0
 16 18  1  0
 16 19  1  0
 12 20  1  0
 20 21  2  0
 21  9  1  0
  1 22  1  0
  1 23  1  0
  1 24  1  0
  2 25  1  0
  2 26  1  0
  3 27  1  0
  3 28  1  0
  4 29  1  0
  4 30  1  0
  5 31  1  0
 10 32  1  0
 11 33  1  0
 13 34  1  0
 20 35  1  0
 21 36  1  0
M  END
>  <loss>  (12) 
0.5980719327926636

>  <score>  (12) 
-14.453948020935059

$$$$
BDZAJGMDKFYQCV-UHFFFAOYSA-N
     RDKit          3D

 36 36  0  0  0  0  0  0  0  0999 V2000
  118.7324  128.8548   89.6791 C   0  0  0  0  0  0  0  0  0  0  0  0
  118.4702  128.7862   88.1827 C   0  0  0  0  0  0  0  0  0  0  0  0
  119.1698  127.6116   87.4907 C   0  0  0  0  0  0  0  0  0  0  0  0
  118.4406  126.2734   87.6048 C   0  0  0  0  0  0  0  0  0  0  0  0
  117.7117  125.9984   86.3697 N   0  0  0  0  0  0  0  0  0  0  0  0
  117.6175  124.4368   85.7742 S   0  0  0  0  0  6  0  0  0  0  0  0
  117.1867  123.5710   86.8491 O   0  0  0  0  0  0  0  0  0  0  0  0
  116.9037  124.5142   84.5196 O   0  0  0  0  0  0  0  0  0  0  0  0
  119.3147  124.0622   85.4083 C   0  0  0  0  0  0  0  0  0  0  0  0
  119.7482  124.0755   84.0819 C   0  0  0  0  0  0  0  0  0  0  0  0
  121.0822  123.7742   83.7842 C   0  0  0  0  0  0  0  0  0  0  0  0
  121.9820  123.4486   84.8029 C   0  0  0  0  0  0  0  0  0  0  0  0
  123.3392  123.1302   84.5913 N   0  0  0  0  0  0  0  0  0  0  0  0
  123.9315  122.5974   83.4395 C   0  0  0  0  0  0  0  0  0  0  0  0
  123.3338  122.4424   82.3740 O   0  0  0  0  0  0  0  0  0  0  0  0
  125.4396  122.2652   83.6067 C   0  0  0  0  0  0  0  0  0  0  0  0
  126.3737  123.6716   83.0210 Cl  0  0  0  0  0  0  0  0  0  0  0  0
  125.8879  120.8110   82.6898 Cl  0  0  0  0  0  0  0  0  0  0  0  0
  125.7962  122.0066   85.3421 Cl  0  0  0  0  0  0  0  0  0  0  0  0
  121.5253  123.4234   86.1296 C   0  0  0  0  0  0  0  0  0  0  0  0
  120.1955  123.7264   86.4362 C   0  0  0  0  0  0  0  0  0  0  0  0
  117.8084  128.6131   90.2247 H   0  0  0  0  0  0  0  0  0  0  0  0
  119.5165  128.1314   89.9474 H   0  0  0  0  0  0  0  0  0  0  0  0
  119.0621  129.8693   89.9474 H   0  0  0  0  0  0  0  0  0  0  0  0
  117.3862  128.6879   88.0237 H   0  0  0  0  0  0  0  0  0  0  0  0
  118.8756  129.7086   87.7414 H   0  0  0  0  0  0  0  0  0  0  0  0
  119.2723  127.8553   86.4230 H   0  0  0  0  0  0  0  0  0  0  0  0
  120.1355  127.4823   88.0013 H   0  0  0  0  0  0  0  0  0  0  0  0
  119.1735  125.4724   87.7819 H   0  0  0  0  0  0  0  0  0  0  0  0
  117.7297  126.3183   88.4430 H   0  0  0  0  0  0  0  0  0  0  0  0
  116.7437  126.3167   86.5202 H   0  0  0  0  0  0  0  0  0  0  0  0
  119.0442  124.3218   83.2734 H   0  0  0  0  0  0  0  0  0  0  0  0
  121.4254  123.7939   82.7394 H   0  0  0  0  0  0  0  0  0  0  0  0
  123.9738  123.3120   85.3820 H   0  0  0  0  0  0  0  0  0  0  0  0
  122.2229  123.1619   86.9389 H   0  0  0  0  0  0  0  0  0  0  0  0
  119.8468  123.7002   87.4792 H   0  0  0  0  0  0  0  0  0  0  0  0
  1  2  1  0
  2  3  1  0
  3  4  1  0
  4  5  1  0
  5  6  1  0
  6  7  2  0
  6  8  2  0
  6  9  1  0
  9 10  2  0
 10 11  1  0
 11 12  2  0
 12 13  1  0
 13 14  1  0
 14 15  2  0
 14 16  1  0
 16 17  1  0
 16 18  1  0
 16 19  1  0
 12 20  1  0
 20 21  2  0
 21  9  1  0
  1 22  1  0
  1 23  1  0
  1 24  1  0
  2 25  1  0
  2 26  1  0
  3 27  1  0
  3 28  1  0
  4 29  1  0
  4 30  1  0
  5 31  1  0
 10 32  1  0
 11 33  1  0
 13 34  1  0
 20 35  1  0
 21 36  1  0
M  END
>  <loss>  (13) 
0.5990493893623352

>  <score>  (13) 
-14.522534370422363

$$$$
BDZAJGMDKFYQCV-UHFFFAOYSA-N
     RDKit          3D

 36 36  0  0  0  0  0  0  0  0999 V2000
  121.1717  123.0296   92.9409 C   0  0  0  0  0  0  0  0  0  0  0  0
  121.3231  121.8078   92.0481 C   0  0  0  0  0  0  0  0  0  0  0  0
  120.3323  121.7756   90.8797 C   0  0  0  0  0  0  0  0  0  0  0  0
  119.9199  123.1487   90.3505 C   0  0  0  0  0  0  0  0  0  0  0  0
  119.0171  122.9917   89.2135 N   0  0  0  0  0  0  0  0  0  0  0  0
  118.7244  124.2784   88.1834 S   0  0  0  0  0  6  0  0  0  0  0  0
  119.1217  125.4939   88.8582 O   0  0  0  0  0  0  0  0  0  0  0  0
  117.3901  124.0940   87.6590 O   0  0  0  0  0  0  0  0  0  0  0  0
  119.8711  123.9797   86.8603 C   0  0  0  0  0  0  0  0  0  0  0  0
  121.2237  123.8009   87.1537 C   0  0  0  0  0  0  0  0  0  0  0  0
  122.1328  123.5576   86.1178 C   0  0  0  0  0  0  0  0  0  0  0  0
  121.6964  123.4806   84.7923 C   0  0  0  0  0  0  0  0  0  0  0  0
  122.5425  123.2370   83.6909 N   0  0  0  0  0  0  0  0  0  0  0  0
  123.9407  123.1573   83.6775 C   0  0  0  0  0  0  0  0  0  0  0  0
  124.6372  123.2125   84.6915 O   0  0  0  0  0  0  0  0  0  0  0  0
  124.5484  123.0468   82.2523 C   0  0  0  0  0  0  0  0  0  0  0  0
  126.3200  123.1741   82.2921 Cl  0  0  0  0  0  0  0  0  0  0  0  0
  123.8607  124.3678   81.2647 Cl  0  0  0  0  0  0  0  0  0  0  0  0
  124.0819  121.4745   81.5340 Cl  0  0  0  0  0  0  0  0  0  0  0  0
  120.3304  123.6461   84.5166 C   0  0  0  0  0  0  0  0  0  0  0  0
  119.4160  123.8928   85.5448 C   0  0  0  0  0  0  0  0  0  0  0  0
  121.2100  122.7199   93.9957 H   0  0  0  0  0  0  0  0  0  0  0  0
  121.9890  123.7367   92.7364 H   0  0  0  0  0  0  0  0  0  0  0  0
  120.2064  123.5158   92.7364 H   0  0  0  0  0  0  0  0  0  0  0  0
  122.3440  121.8006   91.6387 H   0  0  0  0  0  0  0  0  0  0  0  0
  121.1161  120.9252   92.6712 H   0  0  0  0  0  0  0  0  0  0  0  0
  120.7954  121.2156   90.0538 H   0  0  0  0  0  0  0  0  0  0  0  0
  119.4158  121.3040   91.2640 H   0  0  0  0  0  0  0  0  0  0  0  0
  119.4089  123.7085   91.1476 H   0  0  0  0  0  0  0  0  0  0  0  0
  120.8171  123.6972   90.0278 H   0  0  0  0  0  0  0  0  0  0  0  0
  119.3996  122.2303   88.6347 H   0  0  0  0  0  0  0  0  0  0  0  0
  121.5739  123.8508   88.1952 H   0  0  0  0  0  0  0  0  0  0  0  0
  123.2001  123.4259   86.3489 H   0  0  0  0  0  0  0  0  0  0  0  0
  122.0742  123.1008   82.7837 H   0  0  0  0  0  0  0  0  0  0  0  0
  119.9745  123.5808   83.4778 H   0  0  0  0  0  0  0  0  0  0  0  0
  118.3468  124.0174   85.3183 H   0  0  0  0  0  0  0  0  0  0  0  0
  1  2  1  0
  2  3  1  0
  3  4  1  0
  4  5  1  0
  5  6  1  0
  6  7  2  0
  6  8  2  0
  6  9  1  0
  9 10  2  0
 10 11  1  0
 11 12  2  0
 12 13  1  0
 13 14  1  0
 14 15  2  0
 14 16  1  0
 16 17  1  0
 16 18  1  0
 16 19  1  0
 12 20  1  0
 20 21  2  0
 21  9  1  0
  1 22  1  0
  1 23  1  0
  1 24  1  0
  2 25  1  0
  2 26  1  0
  3 27  1  0
  3 28  1  0
  4 29  1  0
  4 30  1  0
  5 31  1  0
 10 32  1  0
 11 33  1  0
 13 34  1  0
 20 35  1  0
 21 36  1  0
M  END
>  <loss>  (14) 
0.5667369365692139

>  <score>  (14) 
-15.944182395935059

$$$$
BDZAJGMDKFYQCV-UHFFFAOYSA-N
     RDKit          3D

 36 36  0  0  0  0  0  0  0  0999 V2000
  118.5752  120.8978   91.3991 C   0  0  0  0  0  0  0  0  0  0  0  0
  117.8300  122.0562   90.7542 C   0  0  0  0  0  0  0  0  0  0  0  0
  118.6517  123.3479   90.6801 C   0  0  0  0  0  0  0  0  0  0  0  0
  119.0980  123.7417   89.2722 C   0  0  0  0  0  0  0  0  0  0  0  0
  117.9508  123.7155   88.3650 N   0  0  0  0  0  0  0  0  0  0  0  0
  117.9648  124.7005   87.0077 S   0  0  0  0  0  6  0  0  0  0  0  0
  118.0315  126.0747   87.4526 O   0  0  0  0  0  0  0  0  0  0  0  0
  116.9083  124.2252   86.1434 O   0  0  0  0  0  0  0  0  0  0  0  0
  119.5086  124.2630   86.2533 C   0  0  0  0  0  0  0  0  0  0  0  0
  119.5506  124.0096   84.8816 C   0  0  0  0  0  0  0  0  0  0  0  0
  120.7608  123.6503   84.2781 C   0  0  0  0  0  0  0  0  0  0  0  0
  121.9303  123.5512   85.0364 C   0  0  0  0  0  0  0  0  0  0  0  0
  123.1891  123.1939   84.5110 N   0  0  0  0  0  0  0  0  0  0  0  0
  123.4834  122.7014   83.2336 C   0  0  0  0  0  0  0  0  0  0  0  0
  122.6296  122.2984   82.4429 O   0  0  0  0  0  0  0  0  0  0  0  0
  125.0027  122.6569   82.9145 C   0  0  0  0  0  0  0  0  0  0  0  0
  125.3058  121.9806   81.2995 Cl  0  0  0  0  0  0  0  0  0  0  0  0
  125.6711  124.3162   82.9972 Cl  0  0  0  0  0  0  0  0  0  0  0  0
  125.7907  121.6466   84.1600 Cl  0  0  0  0  0  0  0  0  0  0  0  0
  121.8729  123.8221   86.4124 C   0  0  0  0  0  0  0  0  0  0  0  0
  120.6673  124.1783   87.0239 C   0  0  0  0  0  0  0  0  0  0  0  0
  118.5170  120.9883   92.4938 H   0  0  0  0  0  0  0  0  0  0  0  0
  118.1185  119.9477   91.0849 H   0  0  0  0  0  0  0  0  0  0  0  0
  119.6292  120.9195   91.0849 H   0  0  0  0  0  0  0  0  0  0  0  0
  117.5492  121.7633   89.7317 H   0  0  0  0  0  0  0  0  0  0  0  0
  116.9531  122.2669   91.3841 H   0  0  0  0  0  0  0  0  0  0  0  0
  118.0403  124.1667   91.0872 H   0  0  0  0  0  0  0  0  0  0  0  0
  119.5702  123.1651   91.2571 H   0  0  0  0  0  0  0  0  0  0  0  0
  119.5236  124.7558   89.2940 H   0  0  0  0  0  0  0  0  0  0  0  0
  119.8578  123.0292   88.9187 H   0  0  0  0  0  0  0  0  0  0  0  0
  117.8507  122.7456   88.0331 H   0  0  0  0  0  0  0  0  0  0  0  0
  118.6355  124.0920   84.2769 H   0  0  0  0  0  0  0  0  0  0  0  0
  120.7917  123.4442   83.1980 H   0  0  0  0  0  0  0  0  0  0  0  0
  123.9920  123.3096   85.1457 H   0  0  0  0  0  0  0  0  0  0  0  0
  122.7888  123.7533   87.0177 H   0  0  0  0  0  0  0  0  0  0  0  0
  120.6333  124.3898   88.1029 H   0  0  0  0  0  0  0  0  0  0  0  0
  1  2  1  0
  2  3  1  0
  3  4  1  0
  4  5  1  0
  5  6  1  0
  6  7  2  0
  6  8  2  0
  6  9  1  0
  9 10  2  0
 10 11  1  0
 11 12  2  0
 12 13  1  0
 13 14  1  0
 14 15  2  0
 14 16  1  0
 16 17  1  0
 16 18  1  0
 16 19  1  0
 12 20  1  0
 20 21  2  0
 21  9  1  0
  1 22  1  0
  1 23  1  0
  1 24  1  0
  2 25  1  0
  2 26  1  0
  3 27  1  0
  3 28  1  0
  4 29  1  0
  4 30  1  0
  5 31  1  0
 10 32  1  0
 11 33  1  0
 13 34  1  0
 20 35  1  0
 21 36  1  0
M  END
>  <loss>  (15) 
0.586647629737854

>  <score>  (15) 
-17.087299346923828

$$$$
BDZAJGMDKFYQCV-UHFFFAOYSA-N
     RDKit          3D

 36 36  0  0  0  0  0  0  0  0999 V2000
  119.3232  127.8361   90.3089 C   0  0  0  0  0  0  0  0  0  0  0  0
  118.5727  127.3901   89.0636 C   0  0  0  0  0  0  0  0  0  0  0  0
  118.1964  125.9048   89.0736 C   0  0  0  0  0  0  0  0  0  0  0  0
  118.8664  125.0662   87.9857 C   0  0  0  0  0  0  0  0  0  0  0  0
  117.8674  124.6156   87.0205 N   0  0  0  0  0  0  0  0  0  0  0  0
  117.9847  125.0639   85.4120 S   0  0  0  0  0  6  0  0  0  0  0  0
  118.0786  126.5055   85.3527 O   0  0  0  0  0  0  0  0  0  0  0  0
  116.9592  124.3329   84.7024 O   0  0  0  0  0  0  0  0  0  0  0  0
  119.5570  124.3869   84.9382 C   0  0  0  0  0  0  0  0  0  0  0  0
  120.4173  123.8995   85.9229 C   0  0  0  0  0  0  0  0  0  0  0  0
  121.6549  123.3575   85.5575 C   0  0  0  0  0  0  0  0  0  0  0  0
  122.0324  123.2894   84.2135 C   0  0  0  0  0  0  0  0  0  0  0  0
  123.2567  122.7578   83.7589 N   0  0  0  0  0  0  0  0  0  0  0  0
  124.4863  122.7271   84.4287 C   0  0  0  0  0  0  0  0  0  0  0  0
  124.6531  123.1598   85.5695 O   0  0  0  0  0  0  0  0  0  0  0  0
  125.6482  122.1432   83.5791 C   0  0  0  0  0  0  0  0  0  0  0  0
  126.8884  121.3934   84.6067 Cl  0  0  0  0  0  0  0  0  0  0  0  0
  126.3606  123.4851   82.6382 Cl  0  0  0  0  0  0  0  0  0  0  0  0
  124.9932  120.9185   82.4491 Cl  0  0  0  0  0  0  0  0  0  0  0  0
  121.1481  123.7687   83.2349 C   0  0  0  0  0  0  0  0  0  0  0  0
  119.9116  124.3147   83.5913 C   0  0  0  0  0  0  0  0  0  0  0  0
  118.7742  127.5099   91.2045 H   0  0  0  0  0  0  0  0  0  0  0  0
  120.3280  127.3885   90.3114 H   0  0  0  0  0  0  0  0  0  0  0  0
  119.4104  128.9327   90.3114 H   0  0  0  0  0  0  0  0  0  0  0  0
  117.6492  127.9823   88.9834 H   0  0  0  0  0  0  0  0  0  0  0  0
  119.2457  127.5468   88.2078 H   0  0  0  0  0  0  0  0  0  0  0  0
  118.4795  125.4867   90.0508 H   0  0  0  0  0  0  0  0  0  0  0  0
  117.1149  125.8582   88.8781 H   0  0  0  0  0  0  0  0  0  0  0  0
  119.6235  125.6752   87.4699 H   0  0  0  0  0  0  0  0  0  0  0  0
  119.3457  124.1901   88.4470 H   0  0  0  0  0  0  0  0  0  0  0  0
  117.8781  123.5859   87.0424 H   0  0  0  0  0  0  0  0  0  0  0  0
  120.1239  123.9410   86.9822 H   0  0  0  0  0  0  0  0  0  0  0  0
  122.3364  122.9819   86.3349 H   0  0  0  0  0  0  0  0  0  0  0  0
  123.2453  122.3402   82.8174 H   0  0  0  0  0  0  0  0  0  0  0  0
  121.4317  123.7140   82.1735 H   0  0  0  0  0  0  0  0  0  0  0  0
  119.2242  124.6843   82.8160 H   0  0  0  0  0  0  0  0  0  0  0  0
  1  2  1  0
  2  3  1  0
  3  4  1  0
  4  5  1  0
  5  6  1  0
  6  7  2  0
  6  8  2  0
  6  9  1  0
  9 10  2  0
 10 11  1  0
 11 12  2  0
 12 13  1  0
 13 14  1  0
 14 15  2  0
 14 16  1  0
 16 17  1  0
 16 18  1  0
 16 19  1  0
 12 20  1  0
 20 21  2  0
 21  9  1  0
  1 22  1  0
  1 23  1  0
  1 24  1  0
  2 25  1  0
  2 26  1  0
  3 27  1  0
  3 28  1  0
  4 29  1  0
  4 30  1  0
  5 31  1  0
 10 32  1  0
 11 33  1  0
 13 34  1  0
 20 35  1  0
 21 36  1  0
M  END
>  <loss>  (16) 
0.5862516164779663

>  <score>  (16) 
-20.20601463317871

$$$$
BDZAJGMDKFYQCV-UHFFFAOYSA-N
     RDKit          3D

 36 36  0  0  0  0  0  0  0  0999 V2000
  119.9840  129.2066   89.5536 C   0  0  0  0  0  0  0  0  0  0  0  0
  119.0430  128.8059   88.4288 C   0  0  0  0  0  0  0  0  0  0  0  0
  118.7203  127.3131   88.4737 C   0  0  0  0  0  0  0  0  0  0  0  0
  118.5986  126.7282   87.0684 C   0  0  0  0  0  0  0  0  0  0  0  0
  117.8379  125.4822   87.1386 N   0  0  0  0  0  0  0  0  0  0  0  0
  117.6885  124.5099   85.7823 S   0  0  0  0  0  6  0  0  0  0  0  0
  117.1645  125.3134   84.7012 O   0  0  0  0  0  0  0  0  0  0  0  0
  117.0357  123.2960   86.2203 O   0  0  0  0  0  0  0  0  0  0  0  0
  119.3784  124.1084   85.4083 C   0  0  0  0  0  0  0  0  0  0  0  0
  119.8230  124.1220   84.0858 C   0  0  0  0  0  0  0  0  0  0  0  0
  121.1518  123.7912   83.7960 C   0  0  0  0  0  0  0  0  0  0  0  0
  122.0348  123.4327   84.8182 C   0  0  0  0  0  0  0  0  0  0  0  0
  123.3854  123.0829   84.6142 N   0  0  0  0  0  0  0  0  0  0  0  0
  123.9820  122.5868   83.4482 C   0  0  0  0  0  0  0  0  0  0  0  0
  123.3932  122.4813   82.3719 O   0  0  0  0  0  0  0  0  0  0  0  0
  125.4837  122.2273   83.6171 C   0  0  0  0  0  0  0  0  0  0  0  0
  125.8415  121.9992   85.3566 Cl  0  0  0  0  0  0  0  0  0  0  0  0
  126.4443  123.6013   82.9982 Cl  0  0  0  0  0  0  0  0  0  0  0  0
  125.8987  120.7448   82.7305 Cl  0  0  0  0  0  0  0  0  0  0  0  0
  121.5663  123.4042   86.1406 C   0  0  0  0  0  0  0  0  0  0  0  0
  120.2420  123.7375   86.4394 C   0  0  0  0  0  0  0  0  0  0  0  0
  119.5050  129.0026   90.5226 H   0  0  0  0  0  0  0  0  0  0  0  0
  120.9158  128.6273   89.4761 H   0  0  0  0  0  0  0  0  0  0  0  0
  120.2120  130.2799   89.4761 H   0  0  0  0  0  0  0  0  0  0  0  0
  118.1077  129.3768   88.5247 H   0  0  0  0  0  0  0  0  0  0  0  0
  119.5380  129.0233   87.4708 H   0  0  0  0  0  0  0  0  0  0  0  0
  119.5241  126.7889   89.0114 H   0  0  0  0  0  0  0  0  0  0  0  0
  117.7571  127.1819   88.9885 H   0  0  0  0  0  0  0  0  0  0  0  0
  118.0772  127.4429   86.4148 H   0  0  0  0  0  0  0  0  0  0  0  0
  119.6003  126.5308   86.6588 H   0  0  0  0  0  0  0  0  0  0  0  0
  118.2790  124.9061   87.8695 H   0  0  0  0  0  0  0  0  0  0  0  0
  119.1316  124.3917   83.2738 H   0  0  0  0  0  0  0  0  0  0  0  0
  121.5043  123.8137   82.7542 H   0  0  0  0  0  0  0  0  0  0  0  0
  124.0109  123.2077   85.4230 H   0  0  0  0  0  0  0  0  0  0  0  0
  122.2500  123.1159   86.9527 H   0  0  0  0  0  0  0  0  0  0  0  0
  119.8836  123.7075   87.4789 H   0  0  0  0  0  0  0  0  0  0  0  0
  1  2  1  0
  2  3  1  0
  3  4  1  0
  4  5  1  0
  5  6  1  0
  6  7  2  0
  6  8  2  0
  6  9  1  0
  9 10  2  0
 10 11  1  0
 11 12  2  0
 12 13  1  0
 13 14  1  0
 14 15  2  0
 14 16  1  0
 16 17  1  0
 16 18  1  0
 16 19  1  0
 12 20  1  0
 20 21  2  0
 21  9  1  0
  1 22  1  0
  1 23  1  0
  1 24  1  0
  2 25  1  0
  2 26  1  0
  3 27  1  0
  3 28  1  0
  4 29  1  0
  4 30  1  0
  5 31  1  0
 10 32  1  0
 11 33  1  0
 13 34  1  0
 20 35  1  0
 21 36  1  0
M  END
>  <loss>  (17) 
0.5990790128707886

>  <score>  (17) 
-21.011354446411133

$$$$
BDZAJGMDKFYQCV-UHFFFAOYSA-N
     RDKit          3D

 36 36  0  0  0  0  0  0  0  0999 V2000
  120.0517  129.8700   88.7343 C   0  0  0  0  0  0  0  0  0  0  0  0
  119.1638  129.2255   87.6818 C   0  0  0  0  0  0  0  0  0  0  0  0
  118.8711  127.7633   88.0152 C   0  0  0  0  0  0  0  0  0  0  0  0
  118.4722  126.9779   86.7679 C   0  0  0  0  0  0  0  0  0  0  0  0
  117.9249  125.6860   87.1771 N   0  0  0  0  0  0  0  0  0  0  0  0
  117.7144  124.4657   86.0484 S   0  0  0  0  0  6  0  0  0  0  0  0
  117.0355  125.0202   84.8993 O   0  0  0  0  0  0  0  0  0  0  0  0
  117.1918  123.3271   86.7710 O   0  0  0  0  0  0  0  0  0  0  0  0
  119.3847  124.0847   85.5772 C   0  0  0  0  0  0  0  0  0  0  0  0
  119.7387  124.0498   84.2280 C   0  0  0  0  0  0  0  0  0  0  0  0
  121.0527  123.7353   83.8624 C   0  0  0  0  0  0  0  0  0  0  0  0
  122.0110  123.4411   84.8362 C   0  0  0  0  0  0  0  0  0  0  0  0
  123.3530  123.1119   84.5554 N   0  0  0  0  0  0  0  0  0  0  0  0
  123.8809  122.5726   83.3755 C   0  0  0  0  0  0  0  0  0  0  0  0
  123.2610  122.5180   82.3129 O   0  0  0  0  0  0  0  0  0  0  0  0
  125.3521  122.0928   83.5094 C   0  0  0  0  0  0  0  0  0  0  0  0
  125.5422  121.2033   85.0517 Cl  0  0  0  0  0  0  0  0  0  0  0  0
  126.3961  123.5429   83.5386 Cl  0  0  0  0  0  0  0  0  0  0  0  0
  125.8145  121.0359   82.1584 Cl  0  0  0  0  0  0  0  0  0  0  0  0
  121.6335  123.4606   86.1875 C   0  0  0  0  0  0  0  0  0  0  0  0
  120.3245  123.7780   86.5616 C   0  0  0  0  0  0  0  0  0  0  0  0
  119.6848  129.6037   89.7365 H   0  0  0  0  0  0  0  0  0  0  0  0
  121.0839  129.5095   88.6139 H   0  0  0  0  0  0  0  0  0  0  0  0
  120.0287  130.9631   88.6139 H   0  0  0  0  0  0  0  0  0  0  0  0
  118.2137  129.7772   87.6291 H   0  0  0  0  0  0  0  0  0  0  0  0
  119.6910  129.2605   86.7170 H   0  0  0  0  0  0  0  0  0  0  0  0
  119.7722  127.3083   88.4520 H   0  0  0  0  0  0  0  0  0  0  0  0
  118.0337  127.7311   88.7278 H   0  0  0  0  0  0  0  0  0  0  0  0
  117.7118  127.5395   86.2053 H   0  0  0  0  0  0  0  0  0  0  0  0
  119.3528  126.8236   86.1271 H   0  0  0  0  0  0  0  0  0  0  0  0
  118.5541  125.3137   87.9026 H   0  0  0  0  0  0  0  0  0  0  0  0
  118.9879  124.2687   83.4545 H   0  0  0  0  0  0  0  0  0  0  0  0
  121.3336  123.7196   82.7990 H   0  0  0  0  0  0  0  0  0  0  0  0
  124.0290  123.2901   85.3118 H   0  0  0  0  0  0  0  0  0  0  0  0
  122.3771  123.2230   86.9625 H   0  0  0  0  0  0  0  0  0  0  0  0
  120.0377  123.7860   87.6236 H   0  0  0  0  0  0  0  0  0  0  0  0
  1  2  1  0
  2  3  1  0
  3  4  1  0
  4  5  1  0
  5  6  1  0
  6  7  2  0
  6  8  2  0
  6  9  1  0
  9 10  2  0
 10 11  1  0
 11 12  2  0
 12 13  1  0
 13 14  1  0
 14 15  2  0
 14 16  1  0
 16 17  1  0
 16 18  1  0
 16 19  1  0
 12 20  1  0
 20 21  2  0
 21  9  1  0
  1 22  1  0
  1 23  1  0
  1 24  1  0
  2 25  1  0
  2 26  1  0
  3 27  1  0
  3 28  1  0
  4 29  1  0
  4 30  1  0
  5 31  1  0
 10 32  1  0
 11 33  1  0
 13 34  1  0
 20 35  1  0
 21 36  1  0
M  END
>  <loss>  (18) 
0.6011049151420593

>  <score>  (18) 
-21.91337013244629

$$$$
BDZAJGMDKFYQCV-UHFFFAOYSA-N
     RDKit          3D

 36 36  0  0  0  0  0  0  0  0999 V2000
  119.8871  128.7504   90.1119 C   0  0  0  0  0  0  0  0  0  0  0  0
  119.2327  127.4095   89.8201 C   0  0  0  0  0  0  0  0  0  0  0  0
  118.8816  127.2681   88.3399 C   0  0  0  0  0  0  0  0  0  0  0  0
  118.3364  125.8764   88.0282 C   0  0  0  0  0  0  0  0  0  0  0  0
  117.7910  125.8762   86.6699 N   0  0  0  0  0  0  0  0  0  0  0  0
  117.6430  124.4106   85.8640 S   0  0  0  0  0  6  0  0  0  0  0  0
  117.1720  123.4236   86.8101 O   0  0  0  0  0  0  0  0  0  0  0  0
  116.9373  124.6889   84.6335 O   0  0  0  0  0  0  0  0  0  0  0  0
  119.3277  124.0494   85.4446 C   0  0  0  0  0  0  0  0  0  0  0  0
  120.2194  123.6224   86.4278 C   0  0  0  0  0  0  0  0  0  0  0  0
  121.5416  123.3344   86.0766 C   0  0  0  0  0  0  0  0  0  0  0  0
  121.9799  123.4669   84.7499 C   0  0  0  0  0  0  0  0  0  0  0  0
  123.3308  123.1552   84.4925 N   0  0  0  0  0  0  0  0  0  0  0  0
  123.8749  122.5458   83.3551 C   0  0  0  0  0  0  0  0  0  0  0  0
  123.2409  122.3420   82.3194 O   0  0  0  0  0  0  0  0  0  0  0  0
  125.3803  122.1902   83.4952 C   0  0  0  0  0  0  0  0  0  0  0  0
  125.6764  121.5167   85.1280 Cl  0  0  0  0  0  0  0  0  0  0  0  0
  126.3165  123.7007   83.3077 Cl  0  0  0  0  0  0  0  0  0  0  0  0
  125.8832  121.0056   82.2701 Cl  0  0  0  0  0  0  0  0  0  0  0  0
  121.0704  123.8885   83.7763 C   0  0  0  0  0  0  0  0  0  0  0  0
  119.7444  124.1764   84.1189 C   0  0  0  0  0  0  0  0  0  0  0  0
  119.9576  128.8949   91.2001 H   0  0  0  0  0  0  0  0  0  0  0  0
  120.8957  128.7693   89.6733 H   0  0  0  0  0  0  0  0  0  0  0  0
  119.2814  129.5571   89.6733 H   0  0  0  0  0  0  0  0  0  0  0  0
  119.9271  126.6041   90.1013 H   0  0  0  0  0  0  0  0  0  0  0  0
  118.3021  127.3455   90.4032 H   0  0  0  0  0  0  0  0  0  0  0  0
  118.1199  128.0177   88.0793 H   0  0  0  0  0  0  0  0  0  0  0  0
  119.7974  127.4218   87.7502 H   0  0  0  0  0  0  0  0  0  0  0  0
  119.1475  125.1369   88.1010 H   0  0  0  0  0  0  0  0  0  0  0  0
  117.5466  125.6149   88.7478 H   0  0  0  0  0  0  0  0  0  0  0  0
  116.8498  126.2914   86.7204 H   0  0  0  0  0  0  0  0  0  0  0  0
  119.8855  123.5131   87.4702 H   0  0  0  0  0  0  0  0  0  0  0  0
  122.2479  122.9995   86.8506 H   0  0  0  0  0  0  0  0  0  0  0  0
  124.0007  123.4071   85.2333 H   0  0  0  0  0  0  0  0  0  0  0  0
  121.3994  123.9950   82.7320 H   0  0  0  0  0  0  0  0  0  0  0  0
  119.0329  124.5019   83.3456 H   0  0  0  0  0  0  0  0  0  0  0  0
  1  2  1  0
  2  3  1  0
  3  4  1  0
  4  5  1  0
  5  6  1  0
  6  7  2  0
  6  8  2  0
  6  9  1  0
  9 10  2  0
 10 11  1  0
 11 12  2  0
 12 13  1  0
 13 14  1  0
 14 15  2  0
 14 16  1  0
 16 17  1  0
 16 18  1  0
 16 19  1  0
 12 20  1  0
 20 21  2  0
 21  9  1  0
  1 22  1  0
  1 23  1  0
  1 24  1  0
  2 25  1  0
  2 26  1  0
  3 27  1  0
  3 28  1  0
  4 29  1  0
  4 30  1  0
  5 31  1  0
 10 32  1  0
 11 33  1  0
 13 34  1  0
 20 35  1  0
 21 36  1  0
M  END
>  <loss>  (19) 
0.6009258031845093

>  <score>  (19) 
-23.3596134185791

$$$$
BDZAJGMDKFYQCV-UHFFFAOYSA-N
     RDKit          3D

 36 36  0  0  0  0  0  0  0  0999 V2000
  119.7035  129.3651   89.7925 C   0  0  0  0  0  0  0  0  0  0  0  0
  119.4412  127.8687   89.7341 C   0  0  0  0  0  0  0  0  0  0  0  0
  118.8425  127.4573   88.3899 C   0  0  0  0  0  0  0  0  0  0  0  0
  118.4380  125.9851   88.3887 C   0  0  0  0  0  0  0  0  0  0  0  0
  117.8322  125.6629   87.0958 N   0  0  0  0  0  0  0  0  0  0  0  0
  117.8046  124.0592   86.5990 S   0  0  0  0  0  6  0  0  0  0  0  0
  117.6755  123.2272   87.7746 O   0  0  0  0  0  0  0  0  0  0  0  0
  116.8653  123.9859   85.5027 O   0  0  0  0  0  0  0  0  0  0  0  0
  119.4316  123.8550   85.9239 C   0  0  0  0  0  0  0  0  0  0  0  0
  120.5053  123.5524   86.7604 C   0  0  0  0  0  0  0  0  0  0  0  0
  121.7793  123.3869   86.2090 C   0  0  0  0  0  0  0  0  0  0  0  0
  121.9891  123.5186   84.8274 C   0  0  0  0  0  0  0  0  0  0  0  0
  123.3084  123.3356   84.3645 N   0  0  0  0  0  0  0  0  0  0  0  0
  123.7272  122.8225   83.1306 C   0  0  0  0  0  0  0  0  0  0  0  0
  122.9552  122.4155   82.2619 O   0  0  0  0  0  0  0  0  0  0  0  0
  125.2667  122.8580   82.9281 C   0  0  0  0  0  0  0  0  0  0  0  0
  126.0265  121.6184   83.9736 Cl  0  0  0  0  0  0  0  0  0  0  0  0
  125.8442  124.4747   83.4244 Cl  0  0  0  0  0  0  0  0  0  0  0  0
  125.7049  122.5480   81.2343 Cl  0  0  0  0  0  0  0  0  0  0  0  0
  120.8999  123.8145   84.0033 C   0  0  0  0  0  0  0  0  0  0  0  0
  119.6209  123.9792   84.5469 C   0  0  0  0  0  0  0  0  0  0  0  0
  119.7599  129.6867   90.8429 H   0  0  0  0  0  0  0  0  0  0  0  0
  120.6549  129.5905   89.2884 H   0  0  0  0  0  0  0  0  0  0  0  0
  118.8856  129.9007   89.2884 H   0  0  0  0  0  0  0  0  0  0  0  0
  120.3907  127.3333   89.8813 H   0  0  0  0  0  0  0  0  0  0  0  0
  118.7209  127.6134   90.5253 H   0  0  0  0  0  0  0  0  0  0  0  0
  117.9532  128.0732   88.1905 H   0  0  0  0  0  0  0  0  0  0  0  0
  119.6040  127.6083   87.6106 H   0  0  0  0  0  0  0  0  0  0  0  0
  119.3273  125.3573   88.5468 H   0  0  0  0  0  0  0  0  0  0  0  0
  117.7164  125.7953   89.1970 H   0  0  0  0  0  0  0  0  0  0  0  0
  116.8552  125.9874   87.1289 H   0  0  0  0  0  0  0  0  0  0  0  0
  120.3514  123.4448   87.8442 H   0  0  0  0  0  0  0  0  0  0  0  0
  122.6287  123.1504   86.8667 H   0  0  0  0  0  0  0  0  0  0  0  0
  124.0572  123.6139   85.0147 H   0  0  0  0  0  0  0  0  0  0  0  0
  121.0492  123.9187   82.9185 H   0  0  0  0  0  0  0  0  0  0  0  0
  118.7676  124.2058   83.8909 H   0  0  0  0  0  0  0  0  0  0  0  0
  1  2  1  0
  2  3  1  0
  3  4  1  0
  4  5  1  0
  5  6  1  0
  6  7  2  0
  6  8  2  0
  6  9  1  0
  9 10  2  0
 10 11  1  0
 11 12  2  0
 12 13  1  0
 13 14  1  0
 14 15  2  0
 14 16  1  0
 16 17  1  0
 16 18  1  0
 16 19  1  0
 12 20  1  0
 20 21  2  0
 21  9  1  0
  1 22  1  0
  1 23  1  0
  1 24  1  0
  2 25  1  0
  2 26  1  0
  3 27  1  0
  3 28  1  0
  4 29  1  0
  4 30  1  0
  5 31  1  0
 10 32  1  0
 11 33  1  0
 13 34  1  0
 20 35  1  0
 21 36  1  0
M  END
>  <loss>  (20) 
0.5924639105796814

>  <score>  (20) 
-25.20956802368164

$$$$
BDZAJGMDKFYQCV-UHFFFAOYSA-N
     RDKit          3D

 36 36  0  0  0  0  0  0  0  0999 V2000
  119.3074  128.4791   89.6667 C   0  0  0  0  0  0  0  0  0  0  0  0
  118.3907  127.7714   88.6810 C   0  0  0  0  0  0  0  0  0  0  0  0
  118.2609  126.2661   88.9365 C   0  0  0  0  0  0  0  0  0  0  0  0
  118.9407  125.3779   87.8951 C   0  0  0  0  0  0  0  0  0  0  0  0
  117.9316  124.6790   87.1041 N   0  0  0  0  0  0  0  0  0  0  0  0
  117.8967  124.8489   85.4391 S   0  0  0  0  0  6  0  0  0  0  0  0
  117.8294  126.2603   85.1325 O   0  0  0  0  0  0  0  0  0  0  0  0
  116.9136  123.9101   84.9475 O   0  0  0  0  0  0  0  0  0  0  0  0
  119.4998  124.2539   84.9587 C   0  0  0  0  0  0  0  0  0  0  0  0
  120.3813  123.7942   85.9379 C   0  0  0  0  0  0  0  0  0  0  0  0
  121.6436  123.3167   85.5671 C   0  0  0  0  0  0  0  0  0  0  0  0
  122.0253  123.2854   84.2230 C   0  0  0  0  0  0  0  0  0  0  0  0
  123.2739  122.8189   83.7631 N   0  0  0  0  0  0  0  0  0  0  0  0
  124.4862  122.7651   84.4623 C   0  0  0  0  0  0  0  0  0  0  0  0
  124.6836  123.3431   85.5316 O   0  0  0  0  0  0  0  0  0  0  0  0
  125.5917  121.9491   83.7380 C   0  0  0  0  0  0  0  0  0  0  0  0
  126.6680  121.1437   84.8995 Cl  0  0  0  0  0  0  0  0  0  0  0  0
  126.5258  123.0833   82.7209 Cl  0  0  0  0  0  0  0  0  0  0  0  0
  124.8228  120.7186   82.6889 Cl  0  0  0  0  0  0  0  0  0  0  0  0
  121.1203  123.7358   83.2497 C   0  0  0  0  0  0  0  0  0  0  0  0
  119.8588  124.2175   83.6115 C   0  0  0  0  0  0  0  0  0  0  0  0
  118.9964  128.2390   90.6941 H   0  0  0  0  0  0  0  0  0  0  0  0
  120.3433  128.1442   89.5094 H   0  0  0  0  0  0  0  0  0  0  0  0
  119.2456  129.5661   89.5094 H   0  0  0  0  0  0  0  0  0  0  0  0
  117.3902  128.2234   88.7503 H   0  0  0  0  0  0  0  0  0  0  0  0
  118.8359  127.8920   87.6824 H   0  0  0  0  0  0  0  0  0  0  0  0
  118.7070  126.0459   89.9176 H   0  0  0  0  0  0  0  0  0  0  0  0
  117.1866  126.0352   88.8863 H   0  0  0  0  0  0  0  0  0  0  0  0
  119.5577  126.0010   87.2310 H   0  0  0  0  0  0  0  0  0  0  0  0
  119.5753  124.6396   88.4071 H   0  0  0  0  0  0  0  0  0  0  0  0
  118.0484  123.6739   87.2967 H   0  0  0  0  0  0  0  0  0  0  0  0
  120.0852  123.8069   86.9972 H   0  0  0  0  0  0  0  0  0  0  0  0
  122.3414  122.9631   86.3404 H   0  0  0  0  0  0  0  0  0  0  0  0
  123.2973  122.4749   82.7925 H   0  0  0  0  0  0  0  0  0  0  0  0
  121.4072  123.7094   82.1881 H   0  0  0  0  0  0  0  0  0  0  0  0
  119.1555  124.5647   82.8403 H   0  0  0  0  0  0  0  0  0  0  0  0
  1  2  1  0
  2  3  1  0
  3  4  1  0
  4  5  1  0
  5  6  1  0
  6  7  2  0
  6  8  2  0
  6  9  1  0
  9 10  2  0
 10 11  1  0
 11 12  2  0
 12 13  1  0
 13 14  1  0
 14 15  2  0
 14 16  1  0
 16 17  1  0
 16 18  1  0
 16 19  1  0
 12 20  1  0
 20 21  2  0
 21  9  1  0
  1 22  1  0
  1 23  1  0
  1 24  1  0
  2 25  1  0
  2 26  1  0
  3 27  1  0
  3 28  1  0
  4 29  1  0
  4 30  1  0
  5 31  1  0
 10 32  1  0
 11 33  1  0
 13 34  1  0
 20 35  1  0
 21 36  1  0
M  END
>  <loss>  (21) 
0.5879727005958557

>  <score>  (21) 
-26.634244918823242

$$$$
BDZAJGMDKFYQCV-UHFFFAOYSA-N
     RDKit          3D

 36 36  0  0  0  0  0  0  0  0999 V2000
  116.9664  119.3830   89.7833 C   0  0  0  0  0  0  0  0  0  0  0  0
  116.9643  120.8498   89.3810 C   0  0  0  0  0  0  0  0  0  0  0  0
  118.0337  121.6827   90.0964 C   0  0  0  0  0  0  0  0  0  0  0  0
  118.8903  122.5507   89.1747 C   0  0  0  0  0  0  0  0  0  0  0  0
  118.2043  123.8149   88.9088 N   0  0  0  0  0  0  0  0  0  0  0  0
  119.1086  125.1485   88.4433 S   0  0  0  0  0  6  0  0  0  0  0  0
  119.9102  125.5622   89.5733 O   0  0  0  0  0  0  0  0  0  0  0  0
  118.1970  126.0520   87.7785 O   0  0  0  0  0  0  0  0  0  0  0  0
  120.1716  124.4561   87.2046 C   0  0  0  0  0  0  0  0  0  0  0  0
  119.7058  124.3362   85.8946 C   0  0  0  0  0  0  0  0  0  0  0  0
  120.5312  123.7788   84.9118 C   0  0  0  0  0  0  0  0  0  0  0  0
  121.8222  123.3485   85.2295 C   0  0  0  0  0  0  0  0  0  0  0  0
  122.7178  122.7746   84.3039 N   0  0  0  0  0  0  0  0  0  0  0  0
  122.6074  122.7309   82.9086 C   0  0  0  0  0  0  0  0  0  0  0  0
  121.5504  122.5204   82.3129 O   0  0  0  0  0  0  0  0  0  0  0  0
  123.9589  122.9208   82.1674 C   0  0  0  0  0  0  0  0  0  0  0  0
  124.7073  124.4801   82.5742 Cl  0  0  0  0  0  0  0  0  0  0  0  0
  125.0715  121.5929   82.6212 Cl  0  0  0  0  0  0  0  0  0  0  0  0
  123.6333  122.8363   80.4124 Cl  0  0  0  0  0  0  0  0  0  0  0  0
  122.2796  123.4884   86.5491 C   0  0  0  0  0  0  0  0  0  0  0  0
  121.4602  124.0410   87.5378 C   0  0  0  0  0  0  0  0  0  0  0  0
  116.9666  119.3036   90.8804 H   0  0  0  0  0  0  0  0  0  0  0  0
  116.0690  118.8909   89.3802 H   0  0  0  0  0  0  0  0  0  0  0  0
  117.8653  118.8935   89.3802 H   0  0  0  0  0  0  0  0  0  0  0  0
  117.1409  120.9136   88.2972 H   0  0  0  0  0  0  0  0  0  0  0  0
  115.9865  121.2625   89.6701 H   0  0  0  0  0  0  0  0  0  0  0  0
  117.5286  122.3429   90.8168 H   0  0  0  0  0  0  0  0  0  0  0  0
  118.7187  120.9657   90.5725 H   0  0  0  0  0  0  0  0  0  0  0  0
  119.8569  122.7542   89.6586 H   0  0  0  0  0  0  0  0  0  0  0  0
  119.0562  122.0200   88.2256 H   0  0  0  0  0  0  0  0  0  0  0  0
  117.5220  123.6360   88.1582 H   0  0  0  0  0  0  0  0  0  0  0  0
  118.6931  124.6787   85.6355 H   0  0  0  0  0  0  0  0  0  0  0  0
  120.1609  123.6785   83.8809 H   0  0  0  0  0  0  0  0  0  0  0  0
  123.5578  122.3325   84.7038 H   0  0  0  0  0  0  0  0  0  0  0  0
  123.2964  123.1588   86.8088 H   0  0  0  0  0  0  0  0  0  0  0  0
  121.8286  124.1473   88.5688 H   0  0  0  0  0  0  0  0  0  0  0  0
  1  2  1  0
  2  3  1  0
  3  4  1  0
  4  5  1  0
  5  6  1  0
  6  7  2  0
  6  8  2  0
  6  9  1  0
  9 10  2  0
 10 11  1  0
 11 12  2  0
 12 13  1  0
 13 14  1  0
 14 15  2  0
 14 16  1  0
 16 17  1  0
 16 18  1  0
 16 19  1  0
 12 20  1  0
 20 21  2  0
 21  9  1  0
  1 22  1  0
  1 23  1  0
  1 24  1  0
  2 25  1  0
  2 26  1  0
  3 27  1  0
  3 28  1  0
  4 29  1  0
  4 30  1  0
  5 31  1  0
 10 32  1  0
 11 33  1  0
 13 34  1  0
 20 35  1  0
 21 36  1  0
M  END
>  <loss>  (22) 
0.651163637638092

>  <score>  (22) 
-30.607301712036133

$$$$
BDZAJGMDKFYQCV-UHFFFAOYSA-N
     RDKit          3D

 36 36  0  0  0  0  0  0  0  0999 V2000
  119.8397  128.0666   90.7315 C   0  0  0  0  0  0  0  0  0  0  0  0
  119.0808  126.8513   90.2229 C   0  0  0  0  0  0  0  0  0  0  0  0
  118.8588  126.9214   88.7129 C   0  0  0  0  0  0  0  0  0  0  0  0
  118.3062  125.6055   88.1705 C   0  0  0  0  0  0  0  0  0  0  0  0
  117.8181  125.8242   86.8079 N   0  0  0  0  0  0  0  0  0  0  0  0
  117.6488  124.4976   85.7928 S   0  0  0  0  0  6  0  0  0  0  0  0
  117.0813  123.4129   86.5624 O   0  0  0  0  0  0  0  0  0  0  0  0
  117.0263  124.9845   84.5824 O   0  0  0  0  0  0  0  0  0  0  0  0
  119.3361  124.1106   85.4082 C   0  0  0  0  0  0  0  0  0  0  0  0
  120.1872  123.6223   86.3987 C   0  0  0  0  0  0  0  0  0  0  0  0
  121.5120  123.3150   86.0748 C   0  0  0  0  0  0  0  0  0  0  0  0
  121.9931  123.4891   84.7678 C   0  0  0  0  0  0  0  0  0  0  0  0
  123.3432  123.1537   84.5375 N   0  0  0  0  0  0  0  0  0  0  0  0
  123.8984  122.5304   83.4130 C   0  0  0  0  0  0  0  0  0  0  0  0
  123.2584  122.2569   82.3972 O   0  0  0  0  0  0  0  0  0  0  0  0
  125.4220  122.2558   83.5381 C   0  0  0  0  0  0  0  0  0  0  0  0
  125.8319  121.9863   85.2604 Cl  0  0  0  0  0  0  0  0  0  0  0  0
  126.2867  123.7055   82.9516 Cl  0  0  0  0  0  0  0  0  0  0  0  0
  125.9042  120.8332   82.5890 Cl  0  0  0  0  0  0  0  0  0  0  0  0
  121.1238  123.9722   83.7861 C   0  0  0  0  0  0  0  0  0  0  0  0
  119.7954  124.2798   84.1014 C   0  0  0  0  0  0  0  0  0  0  0  0
  119.8389  128.0654   91.8315 H   0  0  0  0  0  0  0  0  0  0  0  0
  120.8764  128.0311   90.3655 H   0  0  0  0  0  0  0  0  0  0  0  0
  119.3528  128.9825   90.3655 H   0  0  0  0  0  0  0  0  0  0  0  0
  119.6586  125.9451   90.4576 H   0  0  0  0  0  0  0  0  0  0  0  0
  118.0976  126.8273   90.7156 H   0  0  0  0  0  0  0  0  0  0  0  0
  118.1437  127.7278   88.4931 H   0  0  0  0  0  0  0  0  0  0  0  0
  119.8272  127.1165   88.2289 H   0  0  0  0  0  0  0  0  0  0  0  0
  119.1023  124.8464   88.1605 H   0  0  0  0  0  0  0  0  0  0  0  0
  117.4832  125.2541   88.8101 H   0  0  0  0  0  0  0  0  0  0  0  0
  116.8918  126.2681   86.8847 H   0  0  0  0  0  0  0  0  0  0  0  0
  119.8196  123.4800   87.4257 H   0  0  0  0  0  0  0  0  0  0  0  0
  122.1864  122.9317   86.8547 H   0  0  0  0  0  0  0  0  0  0  0  0
  124.0031  123.3974   85.2898 H   0  0  0  0  0  0  0  0  0  0  0  0
  121.4866  124.1118   82.7571 H   0  0  0  0  0  0  0  0  0  0  0  0
  119.1156  124.6538   83.3216 H   0  0  0  0  0  0  0  0  0  0  0  0
  1  2  1  0
  2  3  1  0
  3  4  1  0
  4  5  1  0
  5  6  1  0
  6  7  2  0
  6  8  2  0
  6  9  1  0
  9 10  2  0
 10 11  1  0
 11 12  2  0
 12 13  1  0
 13 14  1  0
 14 15  2  0
 14 16  1  0
 16 17  1  0
 16 18  1  0
 16 19  1  0
 12 20  1  0
 20 21  2  0
 21  9  1  0
  1 22  1  0
  1 23  1  0
  1 24  1  0
  2 25  1  0
  2 26  1  0
  3 27  1  0
  3 28  1  0
  4 29  1  0
  4 30  1  0
  5 31  1  0
 10 32  1  0
 11 33  1  0
 13 34  1  0
 20 35  1  0
 21 36  1  0
M  END
>  <loss>  (23) 
0.5992876887321472

>  <score>  (23) 
-32.11978530883789

$$$$
BDZAJGMDKFYQCV-UHFFFAOYSA-N
     RDKit          3D

 36 36  0  0  0  0  0  0  0  0999 V2000
  120.1122  127.7117   90.9799 C   0  0  0  0  0  0  0  0  0  0  0  0
  119.3214  127.6315   89.6839 C   0  0  0  0  0  0  0  0  0  0  0  0
  118.8375  126.2082   89.4103 C   0  0  0  0  0  0  0  0  0  0  0  0
  118.5319  126.0003   87.9287 C   0  0  0  0  0  0  0  0  0  0  0  0
  118.1830  124.5980   87.7097 N   0  0  0  0  0  0  0  0  0  0  0  0
  117.9632  124.0186   86.1530 S   0  0  0  0  0  6  0  0  0  0  0  0
  117.3259  125.0515   85.3684 O   0  0  0  0  0  0  0  0  0  0  0  0
  117.3929  122.6963   86.2864 O   0  0  0  0  0  0  0  0  0  0  0  0
  119.6321  123.8298   85.5732 C   0  0  0  0  0  0  0  0  0  0  0  0
  119.9105  123.9115   84.2084 C   0  0  0  0  0  0  0  0  0  0  0  0
  121.2251  123.7481   83.7564 C   0  0  0  0  0  0  0  0  0  0  0  0
  122.2605  123.4889   84.6586 C   0  0  0  0  0  0  0  0  0  0  0  0
  123.6091  123.3084   84.2887 N   0  0  0  0  0  0  0  0  0  0  0  0
  124.1138  122.8147   83.0791 C   0  0  0  0  0  0  0  0  0  0  0  0
  123.4190  122.2677   82.2221 O   0  0  0  0  0  0  0  0  0  0  0  0
  125.6340  123.0675   82.8849 C   0  0  0  0  0  0  0  0  0  0  0  0
  126.5442  122.1688   84.1378 Cl  0  0  0  0  0  0  0  0  0  0  0  0
  125.9248  124.8183   83.0944 Cl  0  0  0  0  0  0  0  0  0  0  0  0
  126.1769  122.5478   81.2752 Cl  0  0  0  0  0  0  0  0  0  0  0  0
  121.9603  123.3895   86.0257 C   0  0  0  0  0  0  0  0  0  0  0  0
  120.6509  123.5559   86.4862 C   0  0  0  0  0  0  0  0  0  0  0  0
  119.4233  127.6418   91.8346 H   0  0  0  0  0  0  0  0  0  0  0  0
  120.8333  126.8821   91.0213 H   0  0  0  0  0  0  0  0  0  0  0  0
  120.6521  128.6692   91.0213 H   0  0  0  0  0  0  0  0  0  0  0  0
  118.4492  128.2980   89.7555 H   0  0  0  0  0  0  0  0  0  0  0  0
  119.9806  127.9367   88.8579 H   0  0  0  0  0  0  0  0  0  0  0  0
  119.6199  125.4987   89.7176 H   0  0  0  0  0  0  0  0  0  0  0  0
  117.9128  126.0404   89.9819 H   0  0  0  0  0  0  0  0  0  0  0  0
  117.6887  126.6413   87.6320 H   0  0  0  0  0  0  0  0  0  0  0  0
  119.4134  126.2636   87.3257 H   0  0  0  0  0  0  0  0  0  0  0  0
  118.9355  124.0356   88.1321 H   0  0  0  0  0  0  0  0  0  0  0  0
  119.0997  124.1037   83.4903 H   0  0  0  0  0  0  0  0  0  0  0  0
  121.4452  123.8244   82.6813 H   0  0  0  0  0  0  0  0  0  0  0  0
  124.3101  123.5723   84.9957 H   0  0  0  0  0  0  0  0  0  0  0  0
  122.7658  123.1780   86.7444 H   0  0  0  0  0  0  0  0  0  0  0  0
  120.4257  123.4714   87.5595 H   0  0  0  0  0  0  0  0  0  0  0  0
  1  2  1  0
  2  3  1  0
  3  4  1  0
  4  5  1  0
  5  6  1  0
  6  7  2  0
  6  8  2  0
  6  9  1  0
  9 10  2  0
 10 11  1  0
 11 12  2  0
 12 13  1  0
 13 14  1  0
 14 15  2  0
 14 16  1  0
 16 17  1  0
 16 18  1  0
 16 19  1  0
 12 20  1  0
 20 21  2  0
 21  9  1  0
  1 22  1  0
  1 23  1  0
  1 24  1  0
  2 25  1  0
  2 26  1  0
  3 27  1  0
  3 28  1  0
  4 29  1  0
  4 30  1  0
  5 31  1  0
 10 32  1  0
 11 33  1  0
 13 34  1  0
 20 35  1  0
 21 36  1  0
M  END
>  <loss>  (24) 
0.6078936457633972

>  <score>  (24) 
-33.25423812866211

$$$$
BDZAJGMDKFYQCV-UHFFFAOYSA-N
     RDKit          3D

 36 36  0  0  0  0  0  0  0  0999 V2000
  120.7665  122.0019   92.7594 C   0  0  0  0  0  0  0  0  0  0  0  0
  120.3524  123.2156   91.9426 C   0  0  0  0  0  0  0  0  0  0  0  0
  119.3016  122.8531   90.8943 C   0  0  0  0  0  0  0  0  0  0  0  0
  119.3539  123.8061   89.7023 C   0  0  0  0  0  0  0  0  0  0  0  0
  118.3635  123.3829   88.7143 N   0  0  0  0  0  0  0  0  0  0  0  0
  118.0795  124.3182   87.3535 S   0  0  0  0  0  6  0  0  0  0  0  0
  118.0251  125.7049   87.7571 O   0  0  0  0  0  0  0  0  0  0  0  0
  116.9914  123.6843   86.6423 O   0  0  0  0  0  0  0  0  0  0  0  0
  119.5602  124.0736   86.4023 C   0  0  0  0  0  0  0  0  0  0  0  0
  119.4915  123.9978   85.0107 C   0  0  0  0  0  0  0  0  0  0  0  0
  120.6595  123.7910   84.2676 C   0  0  0  0  0  0  0  0  0  0  0  0
  121.8933  123.6448   84.9076 C   0  0  0  0  0  0  0  0  0  0  0  0
  123.1150  123.4308   84.2370 N   0  0  0  0  0  0  0  0  0  0  0  0
  123.3567  122.6194   83.1213 C   0  0  0  0  0  0  0  0  0  0  0  0
  122.4678  122.0591   82.4793 O   0  0  0  0  0  0  0  0  0  0  0  0
  124.8560  122.5291   82.7254 C   0  0  0  0  0  0  0  0  0  0  0  0
  125.7565  121.6842   84.0220 Cl  0  0  0  0  0  0  0  0  0  0  0  0
  125.4791  124.1971   82.5727 Cl  0  0  0  0  0  0  0  0  0  0  0  0
  125.0702  121.6557   81.1934 Cl  0  0  0  0  0  0  0  0  0  0  0  0
  121.9420  123.7032   86.3088 C   0  0  0  0  0  0  0  0  0  0  0  0
  120.7810  123.9139   87.0584 C   0  0  0  0  0  0  0  0  0  0  0  0
  120.6865  122.2365   93.8311 H   0  0  0  0  0  0  0  0  0  0  0  0
  120.1063  121.1556   92.5190 H   0  0  0  0  0  0  0  0  0  0  0  0
  121.8063  121.7356   92.5190 H   0  0  0  0  0  0  0  0  0  0  0  0
  119.9351  123.9761   92.6190 H   0  0  0  0  0  0  0  0  0  0  0  0
  121.2414  123.6005   91.4215 H   0  0  0  0  0  0  0  0  0  0  0  0
  119.4866  121.8278   90.5414 H   0  0  0  0  0  0  0  0  0  0  0  0
  118.3074  122.9321   91.3582 H   0  0  0  0  0  0  0  0  0  0  0  0
  119.1275  124.8291   90.0373 H   0  0  0  0  0  0  0  0  0  0  0  0
  120.3584  123.7882   89.2545 H   0  0  0  0  0  0  0  0  0  0  0  0
  118.6563  122.4538   88.3799 H   0  0  0  0  0  0  0  0  0  0  0  0
  118.5229  124.1001   84.4995 H   0  0  0  0  0  0  0  0  0  0  0  0
  120.6058  123.7431   83.1700 H   0  0  0  0  0  0  0  0  0  0  0  0
  123.9309  123.9335   84.6144 H   0  0  0  0  0  0  0  0  0  0  0  0
  122.9063  123.5817   86.8240 H   0  0  0  0  0  0  0  0  0  0  0  0
  120.8296  123.9534   88.1566 H   0  0  0  0  0  0  0  0  0  0  0  0
  1  2  1  0
  2  3  1  0
  3  4  1  0
  4  5  1  0
  5  6  1  0
  6  7  2  0
  6  8  2  0
  6  9  1  0
  9 10  2  0
 10 11  1  0
 11 12  2  0
 12 13  1  0
 13 14  1  0
 14 15  2  0
 14 16  1  0
 16 17  1  0
 16 18  1  0
 16 19  1  0
 12 20  1  0
 20 21  2  0
 21  9  1  0
  1 22  1  0
  1 23  1  0
  1 24  1  0
  2 25  1  0
  2 26  1  0
  3 27  1  0
  3 28  1  0
  4 29  1  0
  4 30  1  0
  5 31  1  0
 10 32  1  0
 11 33  1  0
 13 34  1  0
 20 35  1  0
 21 36  1  0
M  END
>  <loss>  (25) 
0.5741631388664246

>  <score>  (25) 
-42.85676193237305

$$$$
