BWMNPXMUYHYRHS-UHFFFAOYSA-N
     RDKit          3D

 28 28  0  0  0  0  0  0  0  0999 V2000
  126.1328  121.5342   89.3875 C   0  0  0  0  0  0  0  0  0  0  0  0
  126.1440  121.3784   87.8785 C   0  0  0  0  0  0  0  0  0  0  0  0
  125.0101  122.0451   87.3042 O   0  0  0  0  0  0  0  0  0  0  0  0
  123.8132  121.7772   87.8818 C   0  0  0  0  0  0  0  0  0  0  0  0
  123.6410  121.2763   88.9818 O   0  0  0  0  0  0  0  0  0  0  0  0
  122.6963  122.1840   86.9861 C   0  0  0  0  0  0  0  0  0  0  0  0
  122.9000  122.6091   85.6690 C   0  0  0  0  0  0  0  0  0  0  0  0
  121.8128  122.9824   84.8661 C   0  0  0  0  0  0  0  0  0  0  0  0
  120.5102  122.9362   85.3657 C   0  0  0  0  0  0  0  0  0  0  0  0
  119.3625  123.2937   84.6293 N   0  0  0  0  0  0  0  0  0  0  0  0
  119.2553  123.5130   83.2503 C   0  0  0  0  0  0  0  0  0  0  0  0
  120.2181  123.7452   82.5185 O   0  0  0  0  0  0  0  0  0  0  0  0
  117.7948  123.4802   82.7230 C   0  0  0  0  0  0  0  0  0  0  0  0
  117.7618  124.3283   81.1510 Cl  0  0  0  0  0  0  0  0  0  0  0  0
  117.2136  121.8124   82.5278 Cl  0  0  0  0  0  0  0  0  0  0  0  0
  116.7349  124.3455   83.8787 Cl  0  0  0  0  0  0  0  0  0  0  0  0
  120.3096  122.5111   86.6854 C   0  0  0  0  0  0  0  0  0  0  0  0
  121.3920  122.1377   87.4898 C   0  0  0  0  0  0  0  0  0  0  0  0
  126.2042  120.5430   89.8590 H   0  0  0  0  0  0  0  0  0  0  0  0
  126.9888  122.1509   89.6988 H   0  0  0  0  0  0  0  0  0  0  0  0
  125.1972  122.0218   89.6988 H   0  0  0  0  0  0  0  0  0  0  0  0
  127.0676  121.8184   87.4743 H   0  0  0  0  0  0  0  0  0  0  0  0
  126.0973  120.3085   87.6272 H   0  0  0  0  0  0  0  0  0  0  0  0
  123.9204  122.6508   85.2603 H   0  0  0  0  0  0  0  0  0  0  0  0
  121.9880  123.3149   83.8323 H   0  0  0  0  0  0  0  0  0  0  0  0
  118.4951  123.4078   85.1729 H   0  0  0  0  0  0  0  0  0  0  0  0
  119.2891  122.4702   87.0941 H   0  0  0  0  0  0  0  0  0  0  0  0
  121.2164  121.8059   88.5237 H   0  0  0  0  0  0  0  0  0  0  0  0
  1  2  1  0
  2  3  1  0
  3  4  1  0
  4  5  2  0
  4  6  1  0
  6  7  2  0
  7  8  1  0
  8  9  2  0
  9 10  1  0
 10 11  1  0
 11 12  2  0
 11 13  1  0
 13 14  1  0
 13 15  1  0
 13 16  1  0
  9 17  1  0
 17 18  2  0
 18  6  1  0
  1 19  1  0
  1 20  1  0
  1 21  1  0
  2 22  1  0
  2 23  1  0
  7 24  1  0
  8 25  1  0
 10 26  1  0
 17 27  1  0
 18 28  1  0
M  END
>  <loss>  (1) 
0.470761775970459

>  <score>  (1) 
2.832390785217285

$$$$
BWMNPXMUYHYRHS-UHFFFAOYSA-N
     RDKit          3D

 28 28  0  0  0  0  0  0  0  0999 V2000
  126.2424  121.8628   89.2564 C   0  0  0  0  0  0  0  0  0  0  0  0
  126.0116  121.2447   87.8913 C   0  0  0  0  0  0  0  0  0  0  0  0
  124.9281  121.9410   87.2635 O   0  0  0  0  0  0  0  0  0  0  0  0
  123.7388  121.8095   87.9009 C   0  0  0  0  0  0  0  0  0  0  0  0
  123.5802  121.4221   89.0479 O   0  0  0  0  0  0  0  0  0  0  0  0
  122.6167  122.2061   87.0075 C   0  0  0  0  0  0  0  0  0  0  0  0
  121.3106  122.1029   87.4976 C   0  0  0  0  0  0  0  0  0  0  0  0
  120.2234  122.4642   86.6942 C   0  0  0  0  0  0  0  0  0  0  0  0
  120.4212  122.9347   85.3895 C   0  0  0  0  0  0  0  0  0  0  0  0
  119.2685  123.2746   84.6525 N   0  0  0  0  0  0  0  0  0  0  0  0
  119.1635  123.5161   83.2770 C   0  0  0  0  0  0  0  0  0  0  0  0
  120.1332  123.6815   82.5363 O   0  0  0  0  0  0  0  0  0  0  0  0
  117.7020  123.5150   82.7512 C   0  0  0  0  0  0  0  0  0  0  0  0
  116.6419  124.2958   83.9653 Cl  0  0  0  0  0  0  0  0  0  0  0  0
  117.5680  124.3849   81.2075 Cl  0  0  0  0  0  0  0  0  0  0  0  0
  117.1976  121.8140   82.5415 Cl  0  0  0  0  0  0  0  0  0  0  0  0
  121.7256  123.0359   84.9029 C   0  0  0  0  0  0  0  0  0  0  0  0
  122.8176  122.6748   85.7048 C   0  0  0  0  0  0  0  0  0  0  0  0
  125.9715  121.1375   90.0378 H   0  0  0  0  0  0  0  0  0  0  0  0
  127.3030  122.1354   89.3609 H   0  0  0  0  0  0  0  0  0  0  0  0
  125.6202  122.7638   89.3609 H   0  0  0  0  0  0  0  0  0  0  0  0
  126.9208  121.3416   87.2798 H   0  0  0  0  0  0  0  0  0  0  0  0
  125.7694  120.1766   87.9932 H   0  0  0  0  0  0  0  0  0  0  0  0
  121.1373  121.7358   88.5200 H   0  0  0  0  0  0  0  0  0  0  0  0
  119.2014  122.3778   87.0917 H   0  0  0  0  0  0  0  0  0  0  0  0
  118.3952  123.3554   85.1926 H   0  0  0  0  0  0  0  0  0  0  0  0
  121.8984  123.4024   83.8803 H   0  0  0  0  0  0  0  0  0  0  0  0
  123.8394  122.7606   85.3068 H   0  0  0  0  0  0  0  0  0  0  0  0
  1  2  1  0
  2  3  1  0
  3  4  1  0
  4  5  2  0
  4  6  1  0
  6  7  2  0
  7  8  1  0
  8  9  2  0
  9 10  1  0
 10 11  1  0
 11 12  2  0
 11 13  1  0
 13 14  1  0
 13 15  1  0
 13 16  1  0
  9 17  1  0
 17 18  2  0
 18  6  1  0
  1 19  1  0
  1 20  1  0
  1 21  1  0
  2 22  1  0
  2 23  1  0
  7 24  1  0
  8 25  1  0
 10 26  1  0
 17 27  1  0
 18 28  1  0
M  END
>  <loss>  (2) 
0.47837933897972107

>  <score>  (2) 
2.8162333965301514

$$$$
BWMNPXMUYHYRHS-UHFFFAOYSA-N
     RDKit          3D

 28 28  0  0  0  0  0  0  0  0999 V2000
  126.1791  121.5831   89.3576 C   0  0  0  0  0  0  0  0  0  0  0  0
  126.1058  121.3518   87.8600 C   0  0  0  0  0  0  0  0  0  0  0  0
  124.9818  122.0519   87.3061 O   0  0  0  0  0  0  0  0  0  0  0  0
  123.7846  121.8025   87.8914 C   0  0  0  0  0  0  0  0  0  0  0  0
  123.6119  121.3254   89.0018 O   0  0  0  0  0  0  0  0  0  0  0  0
  122.6682  122.1968   86.9895 C   0  0  0  0  0  0  0  0  0  0  0  0
  122.8740  122.6192   85.6719 C   0  0  0  0  0  0  0  0  0  0  0  0
  121.7872  122.9805   84.8630 C   0  0  0  0  0  0  0  0  0  0  0  0
  120.4830  122.9249   85.3571 C   0  0  0  0  0  0  0  0  0  0  0  0
  119.3354  123.2702   84.6145 N   0  0  0  0  0  0  0  0  0  0  0  0
  119.2396  123.5195   83.2398 C   0  0  0  0  0  0  0  0  0  0  0  0
  120.2078  123.7723   82.5221 O   0  0  0  0  0  0  0  0  0  0  0  0
  117.7840  123.4917   82.6987 C   0  0  0  0  0  0  0  0  0  0  0  0
  116.7329  124.2687   83.9165 Cl  0  0  0  0  0  0  0  0  0  0  0  0
  117.6533  124.3468   81.1465 Cl  0  0  0  0  0  0  0  0  0  0  0  0
  117.2717  121.7893   82.4822 Cl  0  0  0  0  0  0  0  0  0  0  0  0
  120.2802  122.5025   86.6773 C   0  0  0  0  0  0  0  0  0  0  0  0
  121.3622  122.1411   87.4877 C   0  0  0  0  0  0  0  0  0  0  0  0
  125.8875  120.6631   89.8854 H   0  0  0  0  0  0  0  0  0  0  0  0
  127.2076  121.8556   89.6366 H   0  0  0  0  0  0  0  0  0  0  0  0
  125.4953  122.3983   89.6366 H   0  0  0  0  0  0  0  0  0  0  0  0
  127.0302  121.7184   87.3898 H   0  0  0  0  0  0  0  0  0  0  0  0
  125.9890  120.2751   87.6678 H   0  0  0  0  0  0  0  0  0  0  0  0
  123.8958  122.6682   85.2674 H   0  0  0  0  0  0  0  0  0  0  0  0
  121.9641  123.3111   83.8289 H   0  0  0  0  0  0  0  0  0  0  0  0
  118.4587  123.3488   85.1495 H   0  0  0  0  0  0  0  0  0  0  0  0
  119.2583  122.4544   87.0817 H   0  0  0  0  0  0  0  0  0  0  0  0
  121.1849  121.8113   88.5220 H   0  0  0  0  0  0  0  0  0  0  0  0
  1  2  1  0
  2  3  1  0
  3  4  1  0
  4  5  2  0
  4  6  1  0
  6  7  2  0
  7  8  1  0
  8  9  2  0
  9 10  1  0
 10 11  1  0
 11 12  2  0
 11 13  1  0
 13 14  1  0
 13 15  1  0
 13 16  1  0
  9 17  1  0
 17 18  2  0
 18  6  1  0
  1 19  1  0
  1 20  1  0
  1 21  1  0
  2 22  1  0
  2 23  1  0
  7 24  1  0
  8 25  1  0
 10 26  1  0
 17 27  1  0
 18 28  1  0
M  END
>  <loss>  (3) 
0.4705745279788971

>  <score>  (3) 
2.76810884475708

$$$$
BWMNPXMUYHYRHS-UHFFFAOYSA-N
     RDKit          3D

 28 28  0  0  0  0  0  0  0  0999 V2000
  126.4757  122.2561   88.9411 C   0  0  0  0  0  0  0  0  0  0  0  0
  125.9571  121.1805   88.0068 C   0  0  0  0  0  0  0  0  0  0  0  0
  124.8678  121.7295   87.2551 O   0  0  0  0  0  0  0  0  0  0  0  0
  123.6934  121.7760   87.9308 C   0  0  0  0  0  0  0  0  0  0  0  0
  123.5369  121.5154   89.1133 O   0  0  0  0  0  0  0  0  0  0  0  0
  122.5851  122.1955   87.0306 C   0  0  0  0  0  0  0  0  0  0  0  0
  121.2726  122.0965   87.5042 C   0  0  0  0  0  0  0  0  0  0  0  0
  120.1978  122.4791   86.6938 C   0  0  0  0  0  0  0  0  0  0  0  0
  120.4147  122.9670   85.3986 C   0  0  0  0  0  0  0  0  0  0  0  0
  119.2736  123.3279   84.6536 N   0  0  0  0  0  0  0  0  0  0  0  0
  119.1714  123.5213   83.2704 C   0  0  0  0  0  0  0  0  0  0  0  0
  120.1433  123.6313   82.5222 O   0  0  0  0  0  0  0  0  0  0  0  0
  117.7090  123.5430   82.7478 C   0  0  0  0  0  0  0  0  0  0  0  0
  116.6753  124.3981   83.9343 Cl  0  0  0  0  0  0  0  0  0  0  0  0
  117.5955  124.3591   81.1734 Cl  0  0  0  0  0  0  0  0  0  0  0  0
  117.1553  121.8507   82.6018 Cl  0  0  0  0  0  0  0  0  0  0  0  0
  121.7254  123.0639   84.9285 C   0  0  0  0  0  0  0  0  0  0  0  0
  122.8050  122.6815   85.7374 C   0  0  0  0  0  0  0  0  0  0  0  0
  126.3235  121.9406   89.9838 H   0  0  0  0  0  0  0  0  0  0  0  0
  127.5489  122.4140   88.7586 H   0  0  0  0  0  0  0  0  0  0  0  0
  125.9309  123.1942   88.7586 H   0  0  0  0  0  0  0  0  0  0  0  0
  126.7583  120.8624   87.3236 H   0  0  0  0  0  0  0  0  0  0  0  0
  125.6195  120.3064   88.5829 H   0  0  0  0  0  0  0  0  0  0  0  0
  121.0843  121.7159   88.5189 H   0  0  0  0  0  0  0  0  0  0  0  0
  119.1706  122.3958   87.0783 H   0  0  0  0  0  0  0  0  0  0  0  0
  118.4075  123.4663   85.1936 H   0  0  0  0  0  0  0  0  0  0  0  0
  121.9133  123.4440   83.9135 H   0  0  0  0  0  0  0  0  0  0  0  0
  123.8321  122.7643   85.3524 H   0  0  0  0  0  0  0  0  0  0  0  0
  1  2  1  0
  2  3  1  0
  3  4  1  0
  4  5  2  0
  4  6  1  0
  6  7  2  0
  7  8  1  0
  8  9  2  0
  9 10  1  0
 10 11  1  0
 11 12  2  0
 11 13  1  0
 13 14  1  0
 13 15  1  0
 13 16  1  0
  9 17  1  0
 17 18  2  0
 18  6  1  0
  1 19  1  0
  1 20  1  0
  1 21  1  0
  2 22  1  0
  2 23  1  0
  7 24  1  0
  8 25  1  0
 10 26  1  0
 17 27  1  0
 18 28  1  0
M  END
>  <loss>  (4) 
0.4866087734699249

>  <score>  (4) 
2.8075664043426514

$$$$
BWMNPXMUYHYRHS-UHFFFAOYSA-N
     RDKit          3D

 28 28  0  0  0  0  0  0  0  0999 V2000
  126.0714  121.6413   90.1243 C   0  0  0  0  0  0  0  0  0  0  0  0
  125.3873  120.8210   89.0482 C   0  0  0  0  0  0  0  0  0  0  0  0
  124.3477  121.6205   88.4708 O   0  0  0  0  0  0  0  0  0  0  0  0
  124.4875  121.8339   87.1385 C   0  0  0  0  0  0  0  0  0  0  0  0
  125.5281  121.7473   86.5065 O   0  0  0  0  0  0  0  0  0  0  0  0
  123.1797  122.1963   86.5269 C   0  0  0  0  0  0  0  0  0  0  0  0
  123.1666  122.6390   85.1998 C   0  0  0  0  0  0  0  0  0  0  0  0
  121.9625  122.9927   84.5763 C   0  0  0  0  0  0  0  0  0  0  0  0
  120.7545  122.9088   85.2694 C   0  0  0  0  0  0  0  0  0  0  0  0
  119.4987  123.2440   84.7232 N   0  0  0  0  0  0  0  0  0  0  0  0
  119.1984  123.5938   83.4005 C   0  0  0  0  0  0  0  0  0  0  0  0
  120.0154  124.0838   82.6205 O   0  0  0  0  0  0  0  0  0  0  0  0
  117.7168  123.3420   83.0089 C   0  0  0  0  0  0  0  0  0  0  0  0
  116.6534  124.1086   84.2292 Cl  0  0  0  0  0  0  0  0  0  0  0  0
  117.3541  121.6051   82.9192 Cl  0  0  0  0  0  0  0  0  0  0  0  0
  117.4311  124.1095   81.4206 Cl  0  0  0  0  0  0  0  0  0  0  0  0
  120.7697  122.4659   86.5990 C   0  0  0  0  0  0  0  0  0  0  0  0
  121.9708  122.1115   87.2255 C   0  0  0  0  0  0  0  0  0  0  0  0
  125.7654  121.2743   91.1151 H   0  0  0  0  0  0  0  0  0  0  0  0
  127.1623  121.5471   90.0193 H   0  0  0  0  0  0  0  0  0  0  0  0
  125.7827  122.6975   90.0193 H   0  0  0  0  0  0  0  0  0  0  0  0
  126.1161  120.5411   88.2732 H   0  0  0  0  0  0  0  0  0  0  0  0
  124.9650  119.9020   89.4808 H   0  0  0  0  0  0  0  0  0  0  0  0
  124.1110  122.7101   84.6402 H   0  0  0  0  0  0  0  0  0  0  0  0
  121.9698  123.3391   83.5323 H   0  0  0  0  0  0  0  0  0  0  0  0
  118.7036  123.2298   85.3778 H   0  0  0  0  0  0  0  0  0  0  0  0
  119.8250  122.3956   87.1581 H   0  0  0  0  0  0  0  0  0  0  0  0
  121.9637  121.7655   88.2696 H   0  0  0  0  0  0  0  0  0  0  0  0
  1  2  1  0
  2  3  1  0
  3  4  1  0
  4  5  2  0
  4  6  1  0
  6  7  2  0
  7  8  1  0
  8  9  2  0
  9 10  1  0
 10 11  1  0
 11 12  2  0
 11 13  1  0
 13 14  1  0
 13 15  1  0
 13 16  1  0
  9 17  1  0
 17 18  2  0
 18  6  1  0
  1 19  1  0
  1 20  1  0
  1 21  1  0
  2 22  1  0
  2 23  1  0
  7 24  1  0
  8 25  1  0
 10 26  1  0
 17 27  1  0
 18 28  1  0
M  END
>  <loss>  (5) 
0.4821126461029053

>  <score>  (5) 
2.754199981689453

$$$$
BWMNPXMUYHYRHS-UHFFFAOYSA-N
     RDKit          3D

 28 28  0  0  0  0  0  0  0  0999 V2000
  126.9162  122.3818   88.1185 C   0  0  0  0  0  0  0  0  0  0  0  0
  125.8210  121.3463   88.2832 C   0  0  0  0  0  0  0  0  0  0  0  0
  124.7358  121.7029   87.4184 O   0  0  0  0  0  0  0  0  0  0  0  0
  123.5268  121.7432   88.0308 C   0  0  0  0  0  0  0  0  0  0  0  0
  123.3038  121.4503   89.1949 O   0  0  0  0  0  0  0  0  0  0  0  0
  122.4733  122.2012   87.0848 C   0  0  0  0  0  0  0  0  0  0  0  0
  121.1341  122.0476   87.4587 C   0  0  0  0  0  0  0  0  0  0  0  0
  120.1087  122.4634   86.6021 C   0  0  0  0  0  0  0  0  0  0  0  0
  120.4023  123.0394   85.3593 C   0  0  0  0  0  0  0  0  0  0  0  0
  119.3067  123.4280   84.5617 N   0  0  0  0  0  0  0  0  0  0  0  0
  119.1897  123.3679   83.1674 C   0  0  0  0  0  0  0  0  0  0  0  0
  120.1403  123.1708   82.4098 O   0  0  0  0  0  0  0  0  0  0  0  0
  117.7328  123.5307   82.6541 C   0  0  0  0  0  0  0  0  0  0  0  0
  116.7936  124.4796   83.8477 Cl  0  0  0  0  0  0  0  0  0  0  0  0
  117.6885  124.3560   81.0810 Cl  0  0  0  0  0  0  0  0  0  0  0  0
  117.0182  121.8996   82.5103 Cl  0  0  0  0  0  0  0  0  0  0  0  0
  121.7395  123.1907   84.9885 C   0  0  0  0  0  0  0  0  0  0  0  0
  122.7698  122.7753   85.8440 C   0  0  0  0  0  0  0  0  0  0  0  0
  127.2629  122.7097   89.1096 H   0  0  0  0  0  0  0  0  0  0  0  0
  127.7572  121.9410   87.5632 H   0  0  0  0  0  0  0  0  0  0  0  0
  126.5230  123.2461   87.5632 H   0  0  0  0  0  0  0  0  0  0  0  0
  126.2042  120.3521   88.0097 H   0  0  0  0  0  0  0  0  0  0  0  0
  125.4803  121.3157   89.3287 H   0  0  0  0  0  0  0  0  0  0  0  0
  120.8858  121.5976   88.4313 H   0  0  0  0  0  0  0  0  0  0  0  0
  119.0598  122.3365   86.9082 H   0  0  0  0  0  0  0  0  0  0  0  0
  118.4911  123.8025   85.0671 H   0  0  0  0  0  0  0  0  0  0  0  0
  121.9874  123.6401   84.0156 H   0  0  0  0  0  0  0  0  0  0  0  0
  123.8186  122.9017   85.5374 H   0  0  0  0  0  0  0  0  0  0  0  0
  1  2  1  0
  2  3  1  0
  3  4  1  0
  4  5  2  0
  4  6  1  0
  6  7  2  0
  7  8  1  0
  8  9  2  0
  9 10  1  0
 10 11  1  0
 11 12  2  0
 11 13  1  0
 13 14  1  0
 13 15  1  0
 13 16  1  0
  9 17  1  0
 17 18  2  0
 18  6  1  0
  1 19  1  0
  1 20  1  0
  1 21  1  0
  2 22  1  0
  2 23  1  0
  7 24  1  0
  8 25  1  0
 10 26  1  0
 17 27  1  0
 18 28  1  0
M  END
>  <loss>  (6) 
0.4938455820083618

>  <score>  (6) 
2.7967100143432617

$$$$
BWMNPXMUYHYRHS-UHFFFAOYSA-N
     RDKit          3D

 28 28  0  0  0  0  0  0  0  0999 V2000
  125.5391  121.2186   90.4812 C   0  0  0  0  0  0  0  0  0  0  0  0
  125.5824  120.9822   88.9842 C   0  0  0  0  0  0  0  0  0  0  0  0
  124.4278  121.5993   88.4015 O   0  0  0  0  0  0  0  0  0  0  0  0
  124.5572  121.8822   87.0811 C   0  0  0  0  0  0  0  0  0  0  0  0
  125.6001  121.8714   86.4471 O   0  0  0  0  0  0  0  0  0  0  0  0
  123.2345  122.2164   86.4858 C   0  0  0  0  0  0  0  0  0  0  0  0
  123.1984  122.6876   85.1690 C   0  0  0  0  0  0  0  0  0  0  0  0
  121.9795  123.0167   84.5609 C   0  0  0  0  0  0  0  0  0  0  0  0
  120.7796  122.8802   85.2597 C   0  0  0  0  0  0  0  0  0  0  0  0
  119.5100  123.1860   84.7283 N   0  0  0  0  0  0  0  0  0  0  0  0
  119.1895  123.5524   83.4149 C   0  0  0  0  0  0  0  0  0  0  0  0
  120.0168  123.9522   82.5954 O   0  0  0  0  0  0  0  0  0  0  0  0
  117.6870  123.3726   83.0654 C   0  0  0  0  0  0  0  0  0  0  0  0
  117.3429  121.6200   83.0083 Cl  0  0  0  0  0  0  0  0  0  0  0  0
  116.6953  124.1222   84.3548 Cl  0  0  0  0  0  0  0  0  0  0  0  0
  117.2883  124.1220   81.5047 Cl  0  0  0  0  0  0  0  0  0  0  0  0
  120.8177  122.4075   86.5785 C   0  0  0  0  0  0  0  0  0  0  0  0
  122.0337  122.0776   87.1896 C   0  0  0  0  0  0  0  0  0  0  0  0
  125.7130  120.2685   91.0076 H   0  0  0  0  0  0  0  0  0  0  0  0
  126.3200  121.9410   90.7611 H   0  0  0  0  0  0  0  0  0  0  0  0
  124.5530  121.6177   90.7611 H   0  0  0  0  0  0  0  0  0  0  0  0
  126.4956  121.4277   88.5628 H   0  0  0  0  0  0  0  0  0  0  0  0
  125.5868  119.9034   88.7692 H   0  0  0  0  0  0  0  0  0  0  0  0
  124.1362  122.8008   84.6053 H   0  0  0  0  0  0  0  0  0  0  0  0
  121.9686  123.3855   83.5246 H   0  0  0  0  0  0  0  0  0  0  0  0
  118.7204  123.1336   85.3876 H   0  0  0  0  0  0  0  0  0  0  0  0
  119.8795  122.2940   87.1414 H   0  0  0  0  0  0  0  0  0  0  0  0
  122.0446  121.7083   88.2257 H   0  0  0  0  0  0  0  0  0  0  0  0
  1  2  1  0
  2  3  1  0
  3  4  1  0
  4  5  2  0
  4  6  1  0
  6  7  2  0
  7  8  1  0
  8  9  2  0
  9 10  1  0
 10 11  1  0
 11 12  2  0
 11 13  1  0
 13 14  1  0
 13 15  1  0
 13 16  1  0
  9 17  1  0
 17 18  2  0
 18  6  1  0
  1 19  1  0
  1 20  1  0
  1 21  1  0
  2 22  1  0
  2 23  1  0
  7 24  1  0
  8 25  1  0
 10 26  1  0
 17 27  1  0
 18 28  1  0
M  END
>  <loss>  (7) 
0.49443337321281433

>  <score>  (7) 
2.799468994140625

$$$$
BWMNPXMUYHYRHS-UHFFFAOYSA-N
     RDKit          3D

 28 28  0  0  0  0  0  0  0  0999 V2000
  126.6368  121.7992   88.6781 C   0  0  0  0  0  0  0  0  0  0  0  0
  125.3806  121.1159   89.1847 C   0  0  0  0  0  0  0  0  0  0  0  0
  124.2236  121.6644   88.5361 O   0  0  0  0  0  0  0  0  0  0  0  0
  124.3257  121.8384   87.1955 C   0  0  0  0  0  0  0  0  0  0  0  0
  125.3424  121.7212   86.5299 O   0  0  0  0  0  0  0  0  0  0  0  0
  123.0063  122.2056   86.6127 C   0  0  0  0  0  0  0  0  0  0  0  0
  121.7941  121.9380   87.2577 C   0  0  0  0  0  0  0  0  0  0  0  0
  120.5773  122.3052   86.6657 C   0  0  0  0  0  0  0  0  0  0  0  0
  120.5539  122.9429   85.4243 C   0  0  0  0  0  0  0  0  0  0  0  0
  119.3781  123.3464   84.7592 N   0  0  0  0  0  0  0  0  0  0  0  0
  119.1522  123.4300   83.3796 C   0  0  0  0  0  0  0  0  0  0  0  0
  120.0530  123.4799   82.5415 O   0  0  0  0  0  0  0  0  0  0  0  0
  117.6490  123.4112   82.9894 C   0  0  0  0  0  0  0  0  0  0  0  0
  116.9138  121.8272   83.3185 Cl  0  0  0  0  0  0  0  0  0  0  0  0
  116.8218  124.6792   83.9379 Cl  0  0  0  0  0  0  0  0  0  0  0  0
  117.4916  123.7866   81.2453 Cl  0  0  0  0  0  0  0  0  0  0  0  0
  121.7694  123.2104   84.7813 C   0  0  0  0  0  0  0  0  0  0  0  0
  122.9858  122.8455   85.3689 C   0  0  0  0  0  0  0  0  0  0  0  0
  127.2445  122.1299   89.5333 H   0  0  0  0  0  0  0  0  0  0  0  0
  127.2175  121.0927   88.0669 H   0  0  0  0  0  0  0  0  0  0  0  0
  126.3591  122.6706   88.0669 H   0  0  0  0  0  0  0  0  0  0  0  0
  125.4411  120.0386   88.9704 H   0  0  0  0  0  0  0  0  0  0  0  0
  125.2955  121.2781   90.2693 H   0  0  0  0  0  0  0  0  0  0  0  0
  121.7956  121.4358   88.2364 H   0  0  0  0  0  0  0  0  0  0  0  0
  119.6319  122.0886   87.1846 H   0  0  0  0  0  0  0  0  0  0  0  0
  118.5872  123.6127   85.3628 H   0  0  0  0  0  0  0  0  0  0  0  0
  121.7676  123.7133   83.8030 H   0  0  0  0  0  0  0  0  0  0  0  0
  123.9310  123.0628   84.8500 H   0  0  0  0  0  0  0  0  0  0  0  0
  1  2  1  0
  2  3  1  0
  3  4  1  0
  4  5  2  0
  4  6  1  0
  6  7  2  0
  7  8  1  0
  8  9  2  0
  9 10  1  0
 10 11  1  0
 11 12  2  0
 11 13  1  0
 13 14  1  0
 13 15  1  0
 13 16  1  0
  9 17  1  0
 17 18  2  0
 18  6  1  0
  1 19  1  0
  1 20  1  0
  1 21  1  0
  2 22  1  0
  2 23  1  0
  7 24  1  0
  8 25  1  0
 10 26  1  0
 17 27  1  0
 18 28  1  0
M  END
>  <loss>  (8) 
0.49167197942733765

>  <score>  (8) 
2.739635467529297

$$$$
BWMNPXMUYHYRHS-UHFFFAOYSA-N
     RDKit          3D

 28 28  0  0  0  0  0  0  0  0999 V2000
  126.8769  122.5616   88.2176 C   0  0  0  0  0  0  0  0  0  0  0  0
  125.9274  121.3786   88.1982 C   0  0  0  0  0  0  0  0  0  0  0  0
  124.7882  121.6724   87.3761 O   0  0  0  0  0  0  0  0  0  0  0  0
  123.6011  121.7657   88.0242 C   0  0  0  0  0  0  0  0  0  0  0  0
  123.4085  121.5425   89.2089 O   0  0  0  0  0  0  0  0  0  0  0  0
  122.5249  122.1910   87.0880 C   0  0  0  0  0  0  0  0  0  0  0  0
  122.7866  122.6393   85.7890 C   0  0  0  0  0  0  0  0  0  0  0  0
  121.7360  123.0292   84.9462 C   0  0  0  0  0  0  0  0  0  0  0  0
  120.4128  122.9767   85.3875 C   0  0  0  0  0  0  0  0  0  0  0  0
  119.2988  123.3498   84.6082 N   0  0  0  0  0  0  0  0  0  0  0  0
  119.2288  123.4970   83.2173 C   0  0  0  0  0  0  0  0  0  0  0  0
  120.2154  123.6430   82.4951 O   0  0  0  0  0  0  0  0  0  0  0  0
  117.7787  123.5033   82.6609 C   0  0  0  0  0  0  0  0  0  0  0  0
  116.7299  124.2864   83.8767 Cl  0  0  0  0  0  0  0  0  0  0  0  0
  117.6807  124.3784   81.1175 Cl  0  0  0  0  0  0  0  0  0  0  0  0
  117.2363  121.8136   82.4193 Cl  0  0  0  0  0  0  0  0  0  0  0  0
  120.1541  122.5282   86.6892 C   0  0  0  0  0  0  0  0  0  0  0  0
  121.1998  122.1382   87.5333 C   0  0  0  0  0  0  0  0  0  0  0  0
  127.0981  122.8373   89.2593 H   0  0  0  0  0  0  0  0  0  0  0  0
  127.8110  122.2905   87.7038 H   0  0  0  0  0  0  0  0  0  0  0  0
  126.4101  123.4149   87.7038 H   0  0  0  0  0  0  0  0  0  0  0  0
  126.4503  120.4992   87.7942 H   0  0  0  0  0  0  0  0  0  0  0  0
  125.5872  121.1739   89.2241 H   0  0  0  0  0  0  0  0  0  0  0  0
  123.8239  122.6862   85.4261 H   0  0  0  0  0  0  0  0  0  0  0  0
  121.9568  123.3799   83.9273 H   0  0  0  0  0  0  0  0  0  0  0  0
  118.4285  123.5374   85.1261 H   0  0  0  0  0  0  0  0  0  0  0  0
  119.1167  122.4821   87.0521 H   0  0  0  0  0  0  0  0  0  0  0  0
  120.9787  121.7882   88.5524 H   0  0  0  0  0  0  0  0  0  0  0  0
  1  2  1  0
  2  3  1  0
  3  4  1  0
  4  5  2  0
  4  6  1  0
  6  7  2  0
  7  8  1  0
  8  9  2  0
  9 10  1  0
 10 11  1  0
 11 12  2  0
 11 13  1  0
 13 14  1  0
 13 15  1  0
 13 16  1  0
  9 17  1  0
 17 18  2  0
 18  6  1  0
  1 19  1  0
  1 20  1  0
  1 21  1  0
  2 22  1  0
  2 23  1  0
  7 24  1  0
  8 25  1  0
 10 26  1  0
 17 27  1  0
 18 28  1  0
M  END
>  <loss>  (9) 
0.4961504638195038

>  <score>  (9) 
2.7567670345306396

$$$$
BWMNPXMUYHYRHS-UHFFFAOYSA-N
     RDKit          3D

 28 28  0  0  0  0  0  0  0  0999 V2000
  126.5477  122.3505   89.0049 C   0  0  0  0  0  0  0  0  0  0  0  0
  126.0230  121.2988   88.0455 C   0  0  0  0  0  0  0  0  0  0  0  0
  124.9082  121.8173   87.3050 O   0  0  0  0  0  0  0  0  0  0  0  0
  123.7022  121.7338   87.9187 C   0  0  0  0  0  0  0  0  0  0  0  0
  123.5022  121.3666   89.0656 O   0  0  0  0  0  0  0  0  0  0  0  0
  122.6145  122.1615   86.9970 C   0  0  0  0  0  0  0  0  0  0  0  0
  122.8566  122.5773   85.6834 C   0  0  0  0  0  0  0  0  0  0  0  0
  121.7959  122.9711   84.8553 C   0  0  0  0  0  0  0  0  0  0  0  0
  120.4819  122.9551   85.3259 C   0  0  0  0  0  0  0  0  0  0  0  0
  119.3589  123.3347   84.5630 N   0  0  0  0  0  0  0  0  0  0  0  0
  119.2731  123.4960   83.1745 C   0  0  0  0  0  0  0  0  0  0  0  0
  120.2523  123.6364   82.4412 O   0  0  0  0  0  0  0  0  0  0  0  0
  117.8163  123.5258   82.6368 C   0  0  0  0  0  0  0  0  0  0  0  0
  116.7476  124.0214   83.9799 Cl  0  0  0  0  0  0  0  0  0  0  0  0
  117.6506  124.6577   81.2769 Cl  0  0  0  0  0  0  0  0  0  0  0  0
  117.3568  121.8809   82.0978 Cl  0  0  0  0  0  0  0  0  0  0  0  0
  120.2428  122.5392   86.6421 C   0  0  0  0  0  0  0  0  0  0  0  0
  121.2987  122.1454   87.4716 C   0  0  0  0  0  0  0  0  0  0  0  0
  126.3817  122.0178   90.0402 H   0  0  0  0  0  0  0  0  0  0  0  0
  127.6245  122.4972   88.8350 H   0  0  0  0  0  0  0  0  0  0  0  0
  126.0171  123.2990   88.8350 H   0  0  0  0  0  0  0  0  0  0  0  0
  126.8227  121.0132   87.3463 H   0  0  0  0  0  0  0  0  0  0  0  0
  125.6956  120.4197   88.6199 H   0  0  0  0  0  0  0  0  0  0  0  0
  123.8865  122.5953   85.2974 H   0  0  0  0  0  0  0  0  0  0  0  0
  122.0013  123.2959   83.8246 H   0  0  0  0  0  0  0  0  0  0  0  0
  118.4942  123.5159   85.0924 H   0  0  0  0  0  0  0  0  0  0  0  0
  119.2129  122.5221   87.0281 H   0  0  0  0  0  0  0  0  0  0  0  0
  121.0930  121.8213   88.5025 H   0  0  0  0  0  0  0  0  0  0  0  0
  1  2  1  0
  2  3  1  0
  3  4  1  0
  4  5  2  0
  4  6  1  0
  6  7  2  0
  7  8  1  0
  8  9  2  0
  9 10  1  0
 10 11  1  0
 11 12  2  0
 11 13  1  0
 13 14  1  0
 13 15  1  0
 13 16  1  0
  9 17  1  0
 17 18  2  0
 18  6  1  0
  1 19  1  0
  1 20  1  0
  1 21  1  0
  2 22  1  0
  2 23  1  0
  7 24  1  0
  8 25  1  0
 10 26  1  0
 17 27  1  0
 18 28  1  0
M  END
>  <loss>  (10) 
0.5011634230613708

>  <score>  (10) 
2.7805919647216797

$$$$
BWMNPXMUYHYRHS-UHFFFAOYSA-N
     RDKit          3D

 28 28  0  0  0  0  0  0  0  0999 V2000
  125.3206  120.6322   90.3232 C   0  0  0  0  0  0  0  0  0  0  0  0
  125.6428  121.2118   88.9597 C   0  0  0  0  0  0  0  0  0  0  0  0
  124.4113  121.5954   88.3355 O   0  0  0  0  0  0  0  0  0  0  0  0
  124.5349  121.9371   87.0286 C   0  0  0  0  0  0  0  0  0  0  0  0
  125.5797  121.9892   86.3996 O   0  0  0  0  0  0  0  0  0  0  0  0
  123.2032  122.2488   86.4413 C   0  0  0  0  0  0  0  0  0  0  0  0
  123.1392  122.6003   85.0886 C   0  0  0  0  0  0  0  0  0  0  0  0
  121.9107  122.9032   84.4863 C   0  0  0  0  0  0  0  0  0  0  0  0
  120.7288  122.8590   85.2265 C   0  0  0  0  0  0  0  0  0  0  0  0
  119.4516  123.1483   84.7043 N   0  0  0  0  0  0  0  0  0  0  0  0
  119.1181  123.5202   83.3957 C   0  0  0  0  0  0  0  0  0  0  0  0
  119.9218  123.9982   82.5949 O   0  0  0  0  0  0  0  0  0  0  0  0
  117.6187  123.3099   83.0496 C   0  0  0  0  0  0  0  0  0  0  0  0
  117.2974  121.5548   82.8942 Cl  0  0  0  0  0  0  0  0  0  0  0  0
  117.1808  124.1256   81.5332 Cl  0  0  0  0  0  0  0  0  0  0  0  0
  116.6471  123.9644   84.3990 Cl  0  0  0  0  0  0  0  0  0  0  0  0
  120.7950  122.5074   86.5816 C   0  0  0  0  0  0  0  0  0  0  0  0
  122.0206  122.2040   87.1870 C   0  0  0  0  0  0  0  0  0  0  0  0
  125.6958  121.3071   91.1065 H   0  0  0  0  0  0  0  0  0  0  0  0
  124.2311  120.5208   90.4261 H   0  0  0  0  0  0  0  0  0  0  0  0
  125.8011  119.6481   90.4261 H   0  0  0  0  0  0  0  0  0  0  0  0
  126.2930  122.0918   89.0731 H   0  0  0  0  0  0  0  0  0  0  0  0
  126.1660  120.4662   88.3431 H   0  0  0  0  0  0  0  0  0  0  0  0
  124.0625  122.6392   84.4919 H   0  0  0  0  0  0  0  0  0  0  0  0
  121.8780  123.1781   83.4217 H   0  0  0  0  0  0  0  0  0  0  0  0
  118.6664  123.0773   85.3672 H   0  0  0  0  0  0  0  0  0  0  0  0
  119.8714  122.4693   87.1778 H   0  0  0  0  0  0  0  0  0  0  0  0
  122.0535  121.9297   88.2517 H   0  0  0  0  0  0  0  0  0  0  0  0
  1  2  1  0
  2  3  1  0
  3  4  1  0
  4  5  2  0
  4  6  1  0
  6  7  2  0
  7  8  1  0
  8  9  2  0
  9 10  1  0
 10 11  1  0
 11 12  2  0
 11 13  1  0
 13 14  1  0
 13 15  1  0
 13 16  1  0
  9 17  1  0
 17 18  2  0
 18  6  1  0
  1 19  1  0
  1 20  1  0
  1 21  1  0
  2 22  1  0
  2 23  1  0
  7 24  1  0
  8 25  1  0
 10 26  1  0
 17 27  1  0
 18 28  1  0
M  END
>  <loss>  (11) 
0.48932579159736633

>  <score>  (11) 
2.721170663833618

$$$$
BWMNPXMUYHYRHS-UHFFFAOYSA-N
     RDKit          3D

 28 28  0  0  0  0  0  0  0  0999 V2000
  125.4424  120.9467   90.4587 C   0  0  0  0  0  0  0  0  0  0  0  0
  125.6942  121.1295   88.9748 C   0  0  0  0  0  0  0  0  0  0  0  0
  124.5035  121.6631   88.3825 O   0  0  0  0  0  0  0  0  0  0  0  0
  124.6057  121.9027   87.0512 C   0  0  0  0  0  0  0  0  0  0  0  0
  125.6336  121.8586   86.3944 O   0  0  0  0  0  0  0  0  0  0  0  0
  123.2738  122.2348   86.4758 C   0  0  0  0  0  0  0  0  0  0  0  0
  123.2195  122.7304   85.1685 C   0  0  0  0  0  0  0  0  0  0  0  0
  121.9912  123.0587   84.5792 C   0  0  0  0  0  0  0  0  0  0  0  0
  120.7999  122.8970   85.2874 C   0  0  0  0  0  0  0  0  0  0  0  0
  119.5220  123.2001   84.7748 N   0  0  0  0  0  0  0  0  0  0  0  0
  119.1682  123.4805   83.4489 C   0  0  0  0  0  0  0  0  0  0  0  0
  119.9805  123.7780   82.5727 O   0  0  0  0  0  0  0  0  0  0  0  0
  117.6470  123.3452   83.1665 C   0  0  0  0  0  0  0  0  0  0  0  0
  116.8022  124.6218   84.0884 Cl  0  0  0  0  0  0  0  0  0  0  0  0
  117.3548  123.5957   81.4173 Cl  0  0  0  0  0  0  0  0  0  0  0  0
  117.0368  121.7461   83.6427 Cl  0  0  0  0  0  0  0  0  0  0  0  0
  120.8563  122.3998   86.5966 C   0  0  0  0  0  0  0  0  0  0  0  0
  122.0817  122.0707   87.1889 C   0  0  0  0  0  0  0  0  0  0  0  0
  126.2030  121.4987   91.0304 H   0  0  0  0  0  0  0  0  0  0  0  0
  124.4432  121.3314   90.7111 H   0  0  0  0  0  0  0  0  0  0  0  0
  125.4982  119.8775   90.7111 H   0  0  0  0  0  0  0  0  0  0  0  0
  126.5312  121.8268   88.8219 H   0  0  0  0  0  0  0  0  0  0  0  0
  125.9512  120.1658   88.5108 H   0  0  0  0  0  0  0  0  0  0  0  0
  124.1502  122.8636   84.5976 H   0  0  0  0  0  0  0  0  0  0  0  0
  121.9660  123.4468   83.5503 H   0  0  0  0  0  0  0  0  0  0  0  0
  118.7534  123.2174   85.4602 H   0  0  0  0  0  0  0  0  0  0  0  0
  119.9251  122.2663   87.1666 H   0  0  0  0  0  0  0  0  0  0  0  0
  122.1069  121.6820   88.2176 H   0  0  0  0  0  0  0  0  0  0  0  0
  1  2  1  0
  2  3  1  0
  3  4  1  0
  4  5  2  0
  4  6  1  0
  6  7  2  0
  7  8  1  0
  8  9  2  0
  9 10  1  0
 10 11  1  0
 11 12  2  0
 11 13  1  0
 13 14  1  0
 13 15  1  0
 13 16  1  0
  9 17  1  0
 17 18  2  0
 18  6  1  0
  1 19  1  0
  1 20  1  0
  1 21  1  0
  2 22  1  0
  2 23  1  0
  7 24  1  0
  8 25  1  0
 10 26  1  0
 17 27  1  0
 18 28  1  0
M  END
>  <loss>  (12) 
0.4895729422569275

>  <score>  (12) 
2.7170193195343018

$$$$
BWMNPXMUYHYRHS-UHFFFAOYSA-N
     RDKit          3D

 28 28  0  0  0  0  0  0  0  0999 V2000
  126.5155  121.7173   88.6815 C   0  0  0  0  0  0  0  0  0  0  0  0
  125.2540  121.0853   89.2366 C   0  0  0  0  0  0  0  0  0  0  0  0
  124.1299  121.6733   88.5702 O   0  0  0  0  0  0  0  0  0  0  0  0
  124.2941  121.8216   87.2318 C   0  0  0  0  0  0  0  0  0  0  0  0
  125.3411  121.6804   86.6206 O   0  0  0  0  0  0  0  0  0  0  0  0
  123.0048  122.1878   86.5842 C   0  0  0  0  0  0  0  0  0  0  0  0
  123.0384  122.7192   85.2904 C   0  0  0  0  0  0  0  0  0  0  0  0
  121.8535  123.0804   84.6353 C   0  0  0  0  0  0  0  0  0  0  0  0
  120.6183  122.9155   85.2630 C   0  0  0  0  0  0  0  0  0  0  0  0
  119.3789  123.2515   84.6811 N   0  0  0  0  0  0  0  0  0  0  0  0
  119.1081  123.5519   83.3401 C   0  0  0  0  0  0  0  0  0  0  0  0
  119.9715  123.8749   82.5239 O   0  0  0  0  0  0  0  0  0  0  0  0
  117.6002  123.4780   82.9757 C   0  0  0  0  0  0  0  0  0  0  0  0
  117.3607  124.1737   81.3428 Cl  0  0  0  0  0  0  0  0  0  0  0  0
  116.6038  124.3676   84.1471 Cl  0  0  0  0  0  0  0  0  0  0  0  0
  117.1252  121.7554   82.9521 Cl  0  0  0  0  0  0  0  0  0  0  0  0
  120.5868  122.3837   86.5593 C   0  0  0  0  0  0  0  0  0  0  0  0
  121.7686  122.0216   87.2172 C   0  0  0  0  0  0  0  0  0  0  0  0
  127.1600  122.0402   89.5124 H   0  0  0  0  0  0  0  0  0  0  0  0
  127.0532  120.9821   88.0648 H   0  0  0  0  0  0  0  0  0  0  0  0
  126.2485  122.5881   88.0648 H   0  0  0  0  0  0  0  0  0  0  0  0
  125.2695  120.0006   89.0546 H   0  0  0  0  0  0  0  0  0  0  0  0
  125.1869  121.2583   90.3208 H   0  0  0  0  0  0  0  0  0  0  0  0
  124.0046  122.8548   84.7824 H   0  0  0  0  0  0  0  0  0  0  0  0
  121.8975  123.4971   83.6182 H   0  0  0  0  0  0  0  0  0  0  0  0
  118.5726  123.2795   85.3215 H   0  0  0  0  0  0  0  0  0  0  0  0
  119.6203  122.2490   87.0669 H   0  0  0  0  0  0  0  0  0  0  0  0
  121.7248  121.6053   88.2345 H   0  0  0  0  0  0  0  0  0  0  0  0
  1  2  1  0
  2  3  1  0
  3  4  1  0
  4  5  2  0
  4  6  1  0
  6  7  2  0
  7  8  1  0
  8  9  2  0
  9 10  1  0
 10 11  1  0
 11 12  2  0
 11 13  1  0
 13 14  1  0
 13 15  1  0
 13 16  1  0
  9 17  1  0
 17 18  2  0
 18  6  1  0
  1 19  1  0
  1 20  1  0
  1 21  1  0
  2 22  1  0
  2 23  1  0
  7 24  1  0
  8 25  1  0
 10 26  1  0
 17 27  1  0
 18 28  1  0
M  END
>  <loss>  (13) 
0.4776081144809723

>  <score>  (13) 
2.6558704376220703

$$$$
BWMNPXMUYHYRHS-UHFFFAOYSA-N
     RDKit          3D

 28 28  0  0  0  0  0  0  0  0999 V2000
  126.9303  122.5345   88.1758 C   0  0  0  0  0  0  0  0  0  0  0  0
  125.9314  121.3964   88.2505 C   0  0  0  0  0  0  0  0  0  0  0  0
  124.8320  121.7099   87.3868 O   0  0  0  0  0  0  0  0  0  0  0  0
  123.6279  121.7433   88.0089 C   0  0  0  0  0  0  0  0  0  0  0  0
  123.4182  121.4620   89.1784 O   0  0  0  0  0  0  0  0  0  0  0  0
  122.5610  122.1772   87.0665 C   0  0  0  0  0  0  0  0  0  0  0  0
  121.2386  122.1896   87.5222 C   0  0  0  0  0  0  0  0  0  0  0  0
  120.2016  122.5899   86.6722 C   0  0  0  0  0  0  0  0  0  0  0  0
  120.4668  122.9847   85.3545 C   0  0  0  0  0  0  0  0  0  0  0  0
  119.3612  123.3714   84.5698 N   0  0  0  0  0  0  0  0  0  0  0  0
  119.2817  123.4593   83.1744 C   0  0  0  0  0  0  0  0  0  0  0  0
  120.2639  123.4449   82.4317 O   0  0  0  0  0  0  0  0  0  0  0  0
  117.8275  123.5346   82.6340 C   0  0  0  0  0  0  0  0  0  0  0  0
  116.7730  124.2575   83.8881 Cl  0  0  0  0  0  0  0  0  0  0  0  0
  117.7362  124.5134   81.1536 Cl  0  0  0  0  0  0  0  0  0  0  0  0
  117.2811  121.8668   82.3002 Cl  0  0  0  0  0  0  0  0  0  0  0  0
  121.7873  122.9705   84.9023 C   0  0  0  0  0  0  0  0  0  0  0  0
  122.8291  122.5700   85.7509 C   0  0  0  0  0  0  0  0  0  0  0  0
  127.2056  122.8482   89.1935 H   0  0  0  0  0  0  0  0  0  0  0  0
  127.8300  122.1981   87.6398 H   0  0  0  0  0  0  0  0  0  0  0  0
  126.4800  123.3830   87.6398 H   0  0  0  0  0  0  0  0  0  0  0  0
  126.4076  120.4605   87.9229 H   0  0  0  0  0  0  0  0  0  0  0  0
  125.5783  121.2673   89.2843 H   0  0  0  0  0  0  0  0  0  0  0  0
  121.0126  121.8831   88.5542 H   0  0  0  0  0  0  0  0  0  0  0  0
  119.1660  122.5947   87.0431 H   0  0  0  0  0  0  0  0  0  0  0  0
  118.5059  123.6201   85.0869 H   0  0  0  0  0  0  0  0  0  0  0  0
  122.0128  123.2766   83.8701 H   0  0  0  0  0  0  0  0  0  0  0  0
  123.8645  122.5647   85.3796 H   0  0  0  0  0  0  0  0  0  0  0  0
  1  2  1  0
  2  3  1  0
  3  4  1  0
  4  5  2  0
  4  6  1  0
  6  7  2  0
  7  8  1  0
  8  9  2  0
  9 10  1  0
 10 11  1  0
 11 12  2  0
 11 13  1  0
 13 14  1  0
 13 15  1  0
 13 16  1  0
  9 17  1  0
 17 18  2  0
 18  6  1  0
  1 19  1  0
  1 20  1  0
  1 21  1  0
  2 22  1  0
  2 23  1  0
  7 24  1  0
  8 25  1  0
 10 26  1  0
 17 27  1  0
 18 28  1  0
M  END
>  <loss>  (14) 
0.48571521043777466

>  <score>  (14) 
2.6875033378601074

$$$$
BWMNPXMUYHYRHS-UHFFFAOYSA-N
     RDKit          3D

 28 28  0  0  0  0  0  0  0  0999 V2000
  126.0714  121.4590   89.4338 C   0  0  0  0  0  0  0  0  0  0  0  0
  126.1068  121.3948   87.9185 C   0  0  0  0  0  0  0  0  0  0  0  0
  124.9753  122.0851   87.3679 O   0  0  0  0  0  0  0  0  0  0  0  0
  123.7698  121.7548   87.8928 C   0  0  0  0  0  0  0  0  0  0  0  0
  123.5786  121.2031   88.9649 O   0  0  0  0  0  0  0  0  0  0  0  0
  122.6699  122.1624   86.9767 C   0  0  0  0  0  0  0  0  0  0  0  0
  122.8926  122.5347   85.6468 C   0  0  0  0  0  0  0  0  0  0  0  0
  121.8208  122.9112   84.8248 C   0  0  0  0  0  0  0  0  0  0  0  0
  120.5151  122.9208   85.3179 C   0  0  0  0  0  0  0  0  0  0  0  0
  119.3820  123.2857   84.5625 N   0  0  0  0  0  0  0  0  0  0  0  0
  119.3037  123.5261   83.1851 C   0  0  0  0  0  0  0  0  0  0  0  0
  120.2833  123.7539   82.4745 O   0  0  0  0  0  0  0  0  0  0  0  0
  117.8529  123.5232   82.6307 C   0  0  0  0  0  0  0  0  0  0  0  0
  116.8089  124.3428   83.8266 Cl  0  0  0  0  0  0  0  0  0  0  0  0
  117.7560  124.3570   81.0645 Cl  0  0  0  0  0  0  0  0  0  0  0  0
  117.3035  121.8298   82.4354 Cl  0  0  0  0  0  0  0  0  0  0  0  0
  120.2954  122.5485   86.6504 C   0  0  0  0  0  0  0  0  0  0  0  0
  121.3623  122.1721   87.4738 C   0  0  0  0  0  0  0  0  0  0  0  0
  126.5628  120.5673   89.8502 H   0  0  0  0  0  0  0  0  0  0  0  0
  126.5995  122.3616   89.7750 H   0  0  0  0  0  0  0  0  0  0  0  0
  125.0262  121.4947   89.7750 H   0  0  0  0  0  0  0  0  0  0  0  0
  127.0321  121.8663   87.5561 H   0  0  0  0  0  0  0  0  0  0  0  0
  126.0741  120.3416   87.6024 H   0  0  0  0  0  0  0  0  0  0  0  0
  123.9158  122.5320   85.2430 H   0  0  0  0  0  0  0  0  0  0  0  0
  122.0110  123.2018   83.7810 H   0  0  0  0  0  0  0  0  0  0  0  0
  118.5027  123.3881   85.0889 H   0  0  0  0  0  0  0  0  0  0  0  0
  119.2721  122.5520   87.0541 H   0  0  0  0  0  0  0  0  0  0  0  0
  121.1718  121.8822   88.5177 H   0  0  0  0  0  0  0  0  0  0  0  0
  1  2  1  0
  2  3  1  0
  3  4  1  0
  4  5  2  0
  4  6  1  0
  6  7  2  0
  7  8  1  0
  8  9  2  0
  9 10  1  0
 10 11  1  0
 11 12  2  0
 11 13  1  0
 13 14  1  0
 13 15  1  0
 13 16  1  0
  9 17  1  0
 17 18  2  0
 18  6  1  0
  1 19  1  0
  1 20  1  0
  1 21  1  0
  2 22  1  0
  2 23  1  0
  7 24  1  0
  8 25  1  0
 10 26  1  0
 17 27  1  0
 18 28  1  0
M  END
>  <loss>  (15) 
0.4925329387187958

>  <score>  (15) 
2.7187232971191406

$$$$
BWMNPXMUYHYRHS-UHFFFAOYSA-N
     RDKit          3D

 28 28  0  0  0  0  0  0  0  0999 V2000
  126.8329  122.4672   88.3010 C   0  0  0  0  0  0  0  0  0  0  0  0
  125.8521  121.3131   88.2314 C   0  0  0  0  0  0  0  0  0  0  0  0
  124.7645  121.7021   87.3838 O   0  0  0  0  0  0  0  0  0  0  0  0
  123.5645  121.7639   88.0117 C   0  0  0  0  0  0  0  0  0  0  0  0
  123.3555  121.4961   89.1844 O   0  0  0  0  0  0  0  0  0  0  0  0
  122.5013  122.2107   87.0712 C   0  0  0  0  0  0  0  0  0  0  0  0
  121.1663  122.0730   87.4657 C   0  0  0  0  0  0  0  0  0  0  0  0
  120.1322  122.4792   86.6150 C   0  0  0  0  0  0  0  0  0  0  0  0
  120.4127  123.0296   85.3577 C   0  0  0  0  0  0  0  0  0  0  0  0
  119.3090  123.4101   84.5674 N   0  0  0  0  0  0  0  0  0  0  0  0
  119.1887  123.3631   83.1729 C   0  0  0  0  0  0  0  0  0  0  0  0
  120.1278  123.1218   82.4138 O   0  0  0  0  0  0  0  0  0  0  0  0
  117.7419  123.6023   82.6612 C   0  0  0  0  0  0  0  0  0  0  0  0
  116.6642  123.8873   84.0629 Cl  0  0  0  0  0  0  0  0  0  0  0  0
  117.6645  124.9998   81.5664 Cl  0  0  0  0  0  0  0  0  0  0  0  0
  117.2127  122.1251   81.8070 Cl  0  0  0  0  0  0  0  0  0  0  0  0
  121.7457  123.1650   84.9664 C   0  0  0  0  0  0  0  0  0  0  0  0
  122.7847  122.7592   85.8159 C   0  0  0  0  0  0  0  0  0  0  0  0
  127.0393  122.7101   89.3538 H   0  0  0  0  0  0  0  0  0  0  0  0
  127.7699  122.1829   87.7998 H   0  0  0  0  0  0  0  0  0  0  0  0
  126.4011  123.3461   87.7998 H   0  0  0  0  0  0  0  0  0  0  0  0
  126.3503  120.4254   87.8147 H   0  0  0  0  0  0  0  0  0  0  0  0
  125.4814  121.0676   89.2376 H   0  0  0  0  0  0  0  0  0  0  0  0
  120.9282  121.6432   88.4499 H   0  0  0  0  0  0  0  0  0  0  0  0
  119.0867  122.3649   86.9374 H   0  0  0  0  0  0  0  0  0  0  0  0
  118.4894  123.7669   85.0791 H   0  0  0  0  0  0  0  0  0  0  0  0
  121.9834  123.5943   83.9819 H   0  0  0  0  0  0  0  0  0  0  0  0
  123.8301  122.8728   85.4930 H   0  0  0  0  0  0  0  0  0  0  0  0
  1  2  1  0
  2  3  1  0
  3  4  1  0
  4  5  2  0
  4  6  1  0
  6  7  2  0
  7  8  1  0
  8  9  2  0
  9 10  1  0
 10 11  1  0
 11 12  2  0
 11 13  1  0
 13 14  1  0
 13 15  1  0
 13 16  1  0
  9 17  1  0
 17 18  2  0
 18  6  1  0
  1 19  1  0
  1 20  1  0
  1 21  1  0
  2 22  1  0
  2 23  1  0
  7 24  1  0
  8 25  1  0
 10 26  1  0
 17 27  1  0
 18 28  1  0
M  END
>  <loss>  (16) 
0.4984281063079834

>  <score>  (16) 
2.7360212802886963

$$$$
BWMNPXMUYHYRHS-UHFFFAOYSA-N
     RDKit          3D

 28 28  0  0  0  0  0  0  0  0999 V2000
  126.4713  121.7008   88.5955 C   0  0  0  0  0  0  0  0  0  0  0  0
  125.2156  121.1201   89.2160 C   0  0  0  0  0  0  0  0  0  0  0  0
  124.0834  121.6827   88.5415 O   0  0  0  0  0  0  0  0  0  0  0  0
  124.2555  121.8389   87.2050 C   0  0  0  0  0  0  0  0  0  0  0  0
  125.3050  121.6963   86.5984 O   0  0  0  0  0  0  0  0  0  0  0  0
  122.9715  122.2157   86.5529 C   0  0  0  0  0  0  0  0  0  0  0  0
  123.0194  122.8312   85.2974 C   0  0  0  0  0  0  0  0  0  0  0  0
  121.8401  123.2062   84.6400 C   0  0  0  0  0  0  0  0  0  0  0  0
  120.5963  122.9713   85.2271 C   0  0  0  0  0  0  0  0  0  0  0  0
  119.3615  123.3149   84.6398 N   0  0  0  0  0  0  0  0  0  0  0  0
  119.0627  123.4564   83.2787 C   0  0  0  0  0  0  0  0  0  0  0  0
  119.9159  123.6019   82.4030 O   0  0  0  0  0  0  0  0  0  0  0  0
  117.5408  123.4517   82.9696 C   0  0  0  0  0  0  0  0  0  0  0  0
  117.2675  124.2239   81.3768 Cl  0  0  0  0  0  0  0  0  0  0  0  0
  116.6218  124.3260   84.2137 Cl  0  0  0  0  0  0  0  0  0  0  0  0
  117.0016  121.7497   82.8937 Cl  0  0  0  0  0  0  0  0  0  0  0  0
  120.5505  122.3553   86.4851 C   0  0  0  0  0  0  0  0  0  0  0  0
  121.7267  121.9791   87.1452 C   0  0  0  0  0  0  0  0  0  0  0  0
  127.1602  122.0193   89.3918 H   0  0  0  0  0  0  0  0  0  0  0  0
  126.9594  120.9369   87.9724 H   0  0  0  0  0  0  0  0  0  0  0  0
  126.2054  122.5673   87.9724 H   0  0  0  0  0  0  0  0  0  0  0  0
  125.2136  120.0264   89.0989 H   0  0  0  0  0  0  0  0  0  0  0  0
  125.1763  121.3581   90.2892 H   0  0  0  0  0  0  0  0  0  0  0  0
  123.9925  123.0227   84.8217 H   0  0  0  0  0  0  0  0  0  0  0  0
  121.8953  123.6894   83.6533 H   0  0  0  0  0  0  0  0  0  0  0  0
  118.5826  123.4827   85.2926 H   0  0  0  0  0  0  0  0  0  0  0  0
  119.5770  122.1646   86.9605 H   0  0  0  0  0  0  0  0  0  0  0  0
  121.6716  121.4963   88.1321 H   0  0  0  0  0  0  0  0  0  0  0  0
  1  2  1  0
  2  3  1  0
  3  4  1  0
  4  5  2  0
  4  6  1  0
  6  7  2  0
  7  8  1  0
  8  9  2  0
  9 10  1  0
 10 11  1  0
 11 12  2  0
 11 13  1  0
 13 14  1  0
 13 15  1  0
 13 16  1  0
  9 17  1  0
 17 18  2  0
 18  6  1  0
  1 19  1  0
  1 20  1  0
  1 21  1  0
  2 22  1  0
  2 23  1  0
  7 24  1  0
  8 25  1  0
 10 26  1  0
 17 27  1  0
 18 28  1  0
M  END
>  <loss>  (17) 
0.47033172845840454

>  <score>  (17) 
2.5914602279663086

$$$$
BWMNPXMUYHYRHS-UHFFFAOYSA-N
     RDKit          3D

 28 28  0  0  0  0  0  0  0  0999 V2000
  126.4806  121.6172   88.5377 C   0  0  0  0  0  0  0  0  0  0  0  0
  125.2499  121.1753   89.3069 C   0  0  0  0  0  0  0  0  0  0  0  0
  124.0623  121.5081   88.5729 O   0  0  0  0  0  0  0  0  0  0  0  0
  124.2430  121.8103   87.2637 C   0  0  0  0  0  0  0  0  0  0  0  0
  125.3000  121.7665   86.6543 O   0  0  0  0  0  0  0  0  0  0  0  0
  122.9561  122.2193   86.6378 C   0  0  0  0  0  0  0  0  0  0  0  0
  121.7123  121.9348   87.2114 C   0  0  0  0  0  0  0  0  0  0  0  0
  120.5283  122.3432   86.5810 C   0  0  0  0  0  0  0  0  0  0  0  0
  120.5696  123.0393   85.3719 C   0  0  0  0  0  0  0  0  0  0  0  0
  119.4304  123.4869   84.6723 N   0  0  0  0  0  0  0  0  0  0  0  0
  119.0615  123.2026   83.3516 C   0  0  0  0  0  0  0  0  0  0  0  0
  119.7918  122.6214   82.5482 O   0  0  0  0  0  0  0  0  0  0  0  0
  117.6179  123.6509   82.9947 C   0  0  0  0  0  0  0  0  0  0  0  0
  117.6055  124.7354   81.5870 Cl  0  0  0  0  0  0  0  0  0  0  0  0
  116.6601  122.1837   82.6460 Cl  0  0  0  0  0  0  0  0  0  0  0  0
  116.9027  124.4978   84.4014 Cl  0  0  0  0  0  0  0  0  0  0  0  0
  121.8166  123.3236   84.8004 C   0  0  0  0  0  0  0  0  0  0  0  0
  123.0004  122.9176   85.4264 C   0  0  0  0  0  0  0  0  0  0  0  0
  127.2730  121.9017   89.2457 H   0  0  0  0  0  0  0  0  0  0  0  0
  126.8342  120.7899   87.9048 H   0  0  0  0  0  0  0  0  0  0  0  0
  126.2271  122.4805   87.9048 H   0  0  0  0  0  0  0  0  0  0  0  0
  125.2890  120.0869   89.4612 H   0  0  0  0  0  0  0  0  0  0  0  0
  125.2286  121.6911   90.2782 H   0  0  0  0  0  0  0  0  0  0  0  0
  121.6628  121.3868   88.1639 H   0  0  0  0  0  0  0  0  0  0  0  0
  119.5575  122.1128   87.0439 H   0  0  0  0  0  0  0  0  0  0  0  0
  118.7900  124.0990   85.1977 H   0  0  0  0  0  0  0  0  0  0  0  0
  121.8658  123.8723   83.8483 H   0  0  0  0  0  0  0  0  0  0  0  0
  123.9711  123.1489   84.9636 H   0  0  0  0  0  0  0  0  0  0  0  0
  1  2  1  0
  2  3  1  0
  3  4  1  0
  4  5  2  0
  4  6  1  0
  6  7  2  0
  7  8  1  0
  8  9  2  0
  9 10  1  0
 10 11  1  0
 11 12  2  0
 11 13  1  0
 13 14  1  0
 13 15  1  0
 13 16  1  0
  9 17  1  0
 17 18  2  0
 18  6  1  0
  1 19  1  0
  1 20  1  0
  1 21  1  0
  2 22  1  0
  2 23  1  0
  7 24  1  0
  8 25  1  0
 10 26  1  0
 17 27  1  0
 18 28  1  0
M  END
>  <loss>  (18) 
0.48780158162117004

>  <score>  (18) 
2.6463873386383057

$$$$
BWMNPXMUYHYRHS-UHFFFAOYSA-N
     RDKit          3D

 28 28  0  0  0  0  0  0  0  0999 V2000
  126.3831  121.6424   88.9436 C   0  0  0  0  0  0  0  0  0  0  0  0
  125.0658  120.9310   89.1888 C   0  0  0  0  0  0  0  0  0  0  0  0
  124.0103  121.5822   88.4663 O   0  0  0  0  0  0  0  0  0  0  0  0
  124.2500  121.8130   87.1520 C   0  0  0  0  0  0  0  0  0  0  0  0
  125.3197  121.6739   86.5804 O   0  0  0  0  0  0  0  0  0  0  0  0
  123.0123  122.2758   86.4670 C   0  0  0  0  0  0  0  0  0  0  0  0
  121.7810  122.3836   87.1221 C   0  0  0  0  0  0  0  0  0  0  0  0
  120.6440  122.8256   86.4307 C   0  0  0  0  0  0  0  0  0  0  0  0
  120.7205  123.1649   85.0789 C   0  0  0  0  0  0  0  0  0  0  0  0
  119.6295  123.6180   84.3094 N   0  0  0  0  0  0  0  0  0  0  0  0
  118.4208  122.9587   84.0535 C   0  0  0  0  0  0  0  0  0  0  0  0
  117.9282  122.1180   84.8066 O   0  0  0  0  0  0  0  0  0  0  0  0
  117.7241  123.4154   82.7427 C   0  0  0  0  0  0  0  0  0  0  0  0
  117.7432  122.1293   81.5166 Cl  0  0  0  0  0  0  0  0  0  0  0  0
  116.0394  123.8549   83.1431 Cl  0  0  0  0  0  0  0  0  0  0  0  0
  118.5700  124.8579   82.1014 Cl  0  0  0  0  0  0  0  0  0  0  0  0
  121.9552  123.0569   84.4259 C   0  0  0  0  0  0  0  0  0  0  0  0
  123.0920  122.6161   85.1125 C   0  0  0  0  0  0  0  0  0  0  0  0
  126.8490  121.8940   89.9078 H   0  0  0  0  0  0  0  0  0  0  0  0
  127.0545  120.9842   88.3726 H   0  0  0  0  0  0  0  0  0  0  0  0
  126.2010  122.5648   88.3726 H   0  0  0  0  0  0  0  0  0  0  0  0
  125.1477  119.8874   88.8509 H   0  0  0  0  0  0  0  0  0  0  0  0
  124.8363  120.9599   90.2642 H   0  0  0  0  0  0  0  0  0  0  0  0
  121.7041  122.1197   88.1872 H   0  0  0  0  0  0  0  0  0  0  0  0
  119.6824  122.9057   86.9588 H   0  0  0  0  0  0  0  0  0  0  0  0
  119.7345  124.5494   83.8825 H   0  0  0  0  0  0  0  0  0  0  0  0
  122.0319  123.3216   83.3610 H   0  0  0  0  0  0  0  0  0  0  0  0
  124.0536  122.5368   84.5842 H   0  0  0  0  0  0  0  0  0  0  0  0
  1  2  1  0
  2  3  1  0
  3  4  1  0
  4  5  2  0
  4  6  1  0
  6  7  2  0
  7  8  1  0
  8  9  2  0
  9 10  1  0
 10 11  1  0
 11 12  2  0
 11 13  1  0
 13 14  1  0
 13 15  1  0
 13 16  1  0
  9 17  1  0
 17 18  2  0
 18  6  1  0
  1 19  1  0
  1 20  1  0
  1 21  1  0
  2 22  1  0
  2 23  1  0
  7 24  1  0
  8 25  1  0
 10 26  1  0
 17 27  1  0
 18 28  1  0
M  END
>  <loss>  (19) 
0.5032361745834351

>  <score>  (19) 
2.722853183746338

$$$$
BWMNPXMUYHYRHS-UHFFFAOYSA-N
     RDKit          3D

 28 28  0  0  0  0  0  0  0  0999 V2000
  125.5199  120.8653   90.3654 C   0  0  0  0  0  0  0  0  0  0  0  0
  125.7742  121.2171   88.9126 C   0  0  0  0  0  0  0  0  0  0  0  0
  124.5401  121.6667   88.3397 O   0  0  0  0  0  0  0  0  0  0  0  0
  124.6054  121.9162   87.0080 C   0  0  0  0  0  0  0  0  0  0  0  0
  125.6179  121.8976   86.3265 O   0  0  0  0  0  0  0  0  0  0  0  0
  123.2533  122.2236   86.4666 C   0  0  0  0  0  0  0  0  0  0  0  0
  123.1617  122.7956   85.1931 C   0  0  0  0  0  0  0  0  0  0  0  0
  121.9133  123.1046   84.6366 C   0  0  0  0  0  0  0  0  0  0  0  0
  120.7388  122.8470   85.3445 C   0  0  0  0  0  0  0  0  0  0  0  0
  119.4428  123.1239   84.8635 N   0  0  0  0  0  0  0  0  0  0  0  0
  119.0641  123.4928   83.5664 C   0  0  0  0  0  0  0  0  0  0  0  0
  119.8456  123.9418   82.7276 O   0  0  0  0  0  0  0  0  0  0  0  0
  117.5611  123.2482   83.2613 C   0  0  0  0  0  0  0  0  0  0  0  0
  117.2413  121.4997   83.4453 Cl  0  0  0  0  0  0  0  0  0  0  0  0
  116.5710  124.1525   84.4487 Cl  0  0  0  0  0  0  0  0  0  0  0  0
  117.1370  123.7745   81.6182 Cl  0  0  0  0  0  0  0  0  0  0  0  0
  120.8326  122.2732   86.6198 C   0  0  0  0  0  0  0  0  0  0  0  0
  122.0783  121.9631   87.1792 C   0  0  0  0  0  0  0  0  0  0  0  0
  126.0406  121.5855   91.0136 H   0  0  0  0  0  0  0  0  0  0  0  0
  124.4394  120.9039   90.5682 H   0  0  0  0  0  0  0  0  0  0  0  0
  125.8951  119.8514   90.5682 H   0  0  0  0  0  0  0  0  0  0  0  0
  126.5276  122.0161   88.8491 H   0  0  0  0  0  0  0  0  0  0  0  0
  126.1486  120.3378   88.3680 H   0  0  0  0  0  0  0  0  0  0  0  0
  124.0788  123.0049   84.6229 H   0  0  0  0  0  0  0  0  0  0  0  0
  121.8588  123.5538   83.6340 H   0  0  0  0  0  0  0  0  0  0  0  0
  118.6799  123.0451   85.5511 H   0  0  0  0  0  0  0  0  0  0  0  0
  119.9150  122.0637   87.1891 H   0  0  0  0  0  0  0  0  0  0  0  0
  122.1328  121.5134   88.1816 H   0  0  0  0  0  0  0  0  0  0  0  0
  1  2  1  0
  2  3  1  0
  3  4  1  0
  4  5  2  0
  4  6  1  0
  6  7  2  0
  7  8  1  0
  8  9  2  0
  9 10  1  0
 10 11  1  0
 11 12  2  0
 11 13  1  0
 13 14  1  0
 13 15  1  0
 13 16  1  0
  9 17  1  0
 17 18  2  0
 18  6  1  0
  1 19  1  0
  1 20  1  0
  1 21  1  0
  2 22  1  0
  2 23  1  0
  7 24  1  0
  8 25  1  0
 10 26  1  0
 17 27  1  0
 18 28  1  0
M  END
>  <loss>  (20) 
0.5108810067176819

>  <score>  (20) 
2.7371461391448975

$$$$
BWMNPXMUYHYRHS-UHFFFAOYSA-N
     RDKit          3D

 28 28  0  0  0  0  0  0  0  0999 V2000
  125.8645  120.3088   89.4960 C   0  0  0  0  0  0  0  0  0  0  0  0
  125.5791  121.7687   89.2026 C   0  0  0  0  0  0  0  0  0  0  0  0
  124.3162  121.8502   88.5305 O   0  0  0  0  0  0  0  0  0  0  0  0
  124.4042  121.8059   87.1775 C   0  0  0  0  0  0  0  0  0  0  0  0
  125.3997  121.5110   86.5358 O   0  0  0  0  0  0  0  0  0  0  0  0
  123.1018  122.1714   86.5565 C   0  0  0  0  0  0  0  0  0  0  0  0
  123.1086  122.7033   85.2625 C   0  0  0  0  0  0  0  0  0  0  0  0
  121.9103  123.0639   84.6318 C   0  0  0  0  0  0  0  0  0  0  0  0
  120.6884  122.8988   85.2848 C   0  0  0  0  0  0  0  0  0  0  0  0
  119.4370  123.2327   84.7280 N   0  0  0  0  0  0  0  0  0  0  0  0
  119.1344  123.5094   83.3886 C   0  0  0  0  0  0  0  0  0  0  0  0
  119.9779  123.8206   82.5473 O   0  0  0  0  0  0  0  0  0  0  0  0
  117.6286  123.3511   83.0429 C   0  0  0  0  0  0  0  0  0  0  0  0
  116.7144  124.5380   84.0169 Cl  0  0  0  0  0  0  0  0  0  0  0  0
  117.3890  123.7115   81.3050 Cl  0  0  0  0  0  0  0  0  0  0  0  0
  117.0514  121.7069   83.3888 Cl  0  0  0  0  0  0  0  0  0  0  0  0
  120.6836  122.3651   86.5808 C   0  0  0  0  0  0  0  0  0  0  0  0
  121.8788  122.0036   87.2143 C   0  0  0  0  0  0  0  0  0  0  0  0
  125.8950  120.1526   90.5844 H   0  0  0  0  0  0  0  0  0  0  0  0
  125.0713  119.6849   89.0582 H   0  0  0  0  0  0  0  0  0  0  0  0
  126.8342  120.0296   89.0582 H   0  0  0  0  0  0  0  0  0  0  0  0
  125.5377  122.3367   90.1437 H   0  0  0  0  0  0  0  0  0  0  0  0
  126.3742  122.1926   88.5716 H   0  0  0  0  0  0  0  0  0  0  0  0
  124.0641  122.8398   84.7349 H   0  0  0  0  0  0  0  0  0  0  0  0
  121.9332  123.4805   83.6140 H   0  0  0  0  0  0  0  0  0  0  0  0
  118.6474  123.2790   85.3877 H   0  0  0  0  0  0  0  0  0  0  0  0
  119.7276  122.2284   87.1075 H   0  0  0  0  0  0  0  0  0  0  0  0
  121.8560  121.5866   88.2320 H   0  0  0  0  0  0  0  0  0  0  0  0
  1  2  1  0
  2  3  1  0
  3  4  1  0
  4  5  2  0
  4  6  1  0
  6  7  2  0
  7  8  1  0
  8  9  2  0
  9 10  1  0
 10 11  1  0
 11 12  2  0
 11 13  1  0
 13 14  1  0
 13 15  1  0
 13 16  1  0
  9 17  1  0
 17 18  2  0
 18  6  1  0
  1 19  1  0
  1 20  1  0
  1 21  1  0
  2 22  1  0
  2 23  1  0
  7 24  1  0
  8 25  1  0
 10 26  1  0
 17 27  1  0
 18 28  1  0
M  END
>  <loss>  (21) 
0.4783838093280792

>  <score>  (21) 
2.5398428440093994

$$$$
BWMNPXMUYHYRHS-UHFFFAOYSA-N
     RDKit          3D

 28 28  0  0  0  0  0  0  0  0999 V2000
  126.4039  121.7373   88.7196 C   0  0  0  0  0  0  0  0  0  0  0  0
  125.1173  121.1075   89.2193 C   0  0  0  0  0  0  0  0  0  0  0  0
  123.9969  121.6226   88.4848 O   0  0  0  0  0  0  0  0  0  0  0  0
  124.1949  121.8021   87.1557 C   0  0  0  0  0  0  0  0  0  0  0  0
  125.2424  121.6257   86.5539 O   0  0  0  0  0  0  0  0  0  0  0  0
  122.9414  122.2590   86.4961 C   0  0  0  0  0  0  0  0  0  0  0  0
  121.6949  122.2165   87.1298 C   0  0  0  0  0  0  0  0  0  0  0  0
  120.5433  122.6598   86.4640 C   0  0  0  0  0  0  0  0  0  0  0  0
  120.6199  123.1503   85.1595 C   0  0  0  0  0  0  0  0  0  0  0  0
  119.5147  123.6161   84.4184 N   0  0  0  0  0  0  0  0  0  0  0  0
  118.3648  122.9086   84.0466 C   0  0  0  0  0  0  0  0  0  0  0  0
  117.9364  121.9302   84.6595 O   0  0  0  0  0  0  0  0  0  0  0  0
  117.6425  123.4970   82.8038 C   0  0  0  0  0  0  0  0  0  0  0  0
  116.0552  122.7374   82.5569 Cl  0  0  0  0  0  0  0  0  0  0  0  0
  117.4471  125.2534   83.0654 Cl  0  0  0  0  0  0  0  0  0  0  0  0
  118.6593  123.2294   81.3539 Cl  0  0  0  0  0  0  0  0  0  0  0  0
  121.8697  123.1925   84.5279 C   0  0  0  0  0  0  0  0  0  0  0  0
  123.0212  122.7510   85.1890 C   0  0  0  0  0  0  0  0  0  0  0  0
  127.0217  122.0397   89.5780 H   0  0  0  0  0  0  0  0  0  0  0  0
  126.9563  121.0077   88.1092 H   0  0  0  0  0  0  0  0  0  0  0  0
  126.1665  122.6211   88.1092 H   0  0  0  0  0  0  0  0  0  0  0  0
  125.1700  120.0171   89.0847 H   0  0  0  0  0  0  0  0  0  0  0  0
  124.9897  121.3480   90.2851 H   0  0  0  0  0  0  0  0  0  0  0  0
  121.6177  121.8325   88.1577 H   0  0  0  0  0  0  0  0  0  0  0  0
  119.5699  122.6208   86.9749 H   0  0  0  0  0  0  0  0  0  0  0  0
  119.5585  124.5986   84.1125 H   0  0  0  0  0  0  0  0  0  0  0  0
  121.9467  123.5774   83.5003 H   0  0  0  0  0  0  0  0  0  0  0  0
  123.9945  122.7909   84.6781 H   0  0  0  0  0  0  0  0  0  0  0  0
  1  2  1  0
  2  3  1  0
  3  4  1  0
  4  5  2  0
  4  6  1  0
  6  7  2  0
  7  8  1  0
  8  9  2  0
  9 10  1  0
 10 11  1  0
 11 12  2  0
 11 13  1  0
 13 14  1  0
 13 15  1  0
 13 16  1  0
  9 17  1  0
 17 18  2  0
 18  6  1  0
  1 19  1  0
  1 20  1  0
  1 21  1  0
  2 22  1  0
  2 23  1  0
  7 24  1  0
  8 25  1  0
 10 26  1  0
 17 27  1  0
 18 28  1  0
M  END
>  <loss>  (22) 
0.500397264957428

>  <score>  (22) 
2.616297960281372

$$$$
BWMNPXMUYHYRHS-UHFFFAOYSA-N
     RDKit          3D

 28 28  0  0  0  0  0  0  0  0999 V2000
  126.4510  121.7399   88.8702 C   0  0  0  0  0  0  0  0  0  0  0  0
  125.1484  121.0371   89.2035 C   0  0  0  0  0  0  0  0  0  0  0  0
  124.0612  121.6479   88.4927 O   0  0  0  0  0  0  0  0  0  0  0  0
  124.2374  121.7928   87.1563 C   0  0  0  0  0  0  0  0  0  0  0  0
  125.2700  121.5832   86.5396 O   0  0  0  0  0  0  0  0  0  0  0  0
  122.9801  122.2574   86.5093 C   0  0  0  0  0  0  0  0  0  0  0  0
  121.7318  122.1724   87.1350 C   0  0  0  0  0  0  0  0  0  0  0  0
  120.5767  122.6251   86.4818 C   0  0  0  0  0  0  0  0  0  0  0  0
  120.6516  123.1674   85.1978 C   0  0  0  0  0  0  0  0  0  0  0  0
  119.5429  123.6462   84.4705 N   0  0  0  0  0  0  0  0  0  0  0  0
  118.4003  122.9400   84.0741 C   0  0  0  0  0  0  0  0  0  0  0  0
  117.9022  122.0236   84.7287 O   0  0  0  0  0  0  0  0  0  0  0  0
  117.7824  123.4463   82.7421 C   0  0  0  0  0  0  0  0  0  0  0  0
  117.8359  122.1917   81.4848 Cl  0  0  0  0  0  0  0  0  0  0  0  0
  116.0895  123.9150   83.0680 Cl  0  0  0  0  0  0  0  0  0  0  0  0
  118.6921  124.8842   82.1834 Cl  0  0  0  0  0  0  0  0  0  0  0  0
  121.9032  123.2521   84.5743 C   0  0  0  0  0  0  0  0  0  0  0  0
  123.0582  122.8013   85.2229 C   0  0  0  0  0  0  0  0  0  0  0  0
  126.9663  122.0179   89.8014 H   0  0  0  0  0  0  0  0  0  0  0  0
  127.0920  121.0652   88.2838 H   0  0  0  0  0  0  0  0  0  0  0  0
  126.2391  122.6461   88.2838 H   0  0  0  0  0  0  0  0  0  0  0  0
  125.2223  119.9783   88.9148 H   0  0  0  0  0  0  0  0  0  0  0  0
  124.9622  121.1189   90.2845 H   0  0  0  0  0  0  0  0  0  0  0  0
  121.6560  121.7473   88.1467 H   0  0  0  0  0  0  0  0  0  0  0  0
  119.6018  122.5522   86.9862 H   0  0  0  0  0  0  0  0  0  0  0  0
  119.5774  124.6385   84.1966 H   0  0  0  0  0  0  0  0  0  0  0  0
  121.9788  123.6780   83.5629 H   0  0  0  0  0  0  0  0  0  0  0  0
  124.0330  122.8750   84.7184 H   0  0  0  0  0  0  0  0  0  0  0  0
  1  2  1  0
  2  3  1  0
  3  4  1  0
  4  5  2  0
  4  6  1  0
  6  7  2  0
  7  8  1  0
  8  9  2  0
  9 10  1  0
 10 11  1  0
 11 12  2  0
 11 13  1  0
 13 14  1  0
 13 15  1  0
 13 16  1  0
  9 17  1  0
 17 18  2  0
 18  6  1  0
  1 19  1  0
  1 20  1  0
  1 21  1  0
  2 22  1  0
  2 23  1  0
  7 24  1  0
  8 25  1  0
 10 26  1  0
 17 27  1  0
 18 28  1  0
M  END
>  <loss>  (23) 
0.5106620788574219

>  <score>  (23) 
2.6416687965393066

$$$$
BWMNPXMUYHYRHS-UHFFFAOYSA-N
     RDKit          3D

 28 28  0  0  0  0  0  0  0  0999 V2000
  125.5759  120.1563   89.6063 C   0  0  0  0  0  0  0  0  0  0  0  0
  125.5588  121.6022   89.1502 C   0  0  0  0  0  0  0  0  0  0  0  0
  124.3170  121.8430   88.4768 O   0  0  0  0  0  0  0  0  0  0  0  0
  124.4198  121.8930   87.1251 C   0  0  0  0  0  0  0  0  0  0  0  0
  125.4349  121.6912   86.4780 O   0  0  0  0  0  0  0  0  0  0  0  0
  123.1065  122.2336   86.5130 C   0  0  0  0  0  0  0  0  0  0  0  0
  123.0968  122.8062   85.2365 C   0  0  0  0  0  0  0  0  0  0  0  0
  121.8877  123.1458   84.6148 C   0  0  0  0  0  0  0  0  0  0  0  0
  120.6713  122.9178   85.2591 C   0  0  0  0  0  0  0  0  0  0  0  0
  119.4100  123.2279   84.7108 N   0  0  0  0  0  0  0  0  0  0  0  0
  119.0992  123.5348   83.3800 C   0  0  0  0  0  0  0  0  0  0  0  0
  119.9276  123.9250   82.5569 O   0  0  0  0  0  0  0  0  0  0  0  0
  117.5929  123.3743   83.0374 C   0  0  0  0  0  0  0  0  0  0  0  0
  117.2267  121.6345   82.8217 Cl  0  0  0  0  0  0  0  0  0  0  0  0
  117.1659  124.2547   81.5545 Cl  0  0  0  0  0  0  0  0  0  0  0  0
  116.6466  124.0037   84.4165 Cl  0  0  0  0  0  0  0  0  0  0  0  0
  120.6831  122.3448   86.5381 C   0  0  0  0  0  0  0  0  0  0  0  0
  121.8892  122.0040   87.1626 C   0  0  0  0  0  0  0  0  0  0  0  0
  125.5763  120.1186   90.7057 H   0  0  0  0  0  0  0  0  0  0  0  0
  124.6838  119.6400   89.2221 H   0  0  0  0  0  0  0  0  0  0  0  0
  126.4800  119.6613   89.2221 H   0  0  0  0  0  0  0  0  0  0  0  0
  125.6458  122.2687   90.0210 H   0  0  0  0  0  0  0  0  0  0  0  0
  126.4032  121.7977   88.4730 H   0  0  0  0  0  0  0  0  0  0  0  0
  124.0478  122.9917   84.7157 H   0  0  0  0  0  0  0  0  0  0  0  0
  121.8977  123.5956   83.6110 H   0  0  0  0  0  0  0  0  0  0  0  0
  118.6191  123.2290   85.3707 H   0  0  0  0  0  0  0  0  0  0  0  0
  119.7318  122.1601   87.0585 H   0  0  0  0  0  0  0  0  0  0  0  0
  121.8793  121.5547   88.1666 H   0  0  0  0  0  0  0  0  0  0  0  0
  1  2  1  0
  2  3  1  0
  3  4  1  0
  4  5  2  0
  4  6  1  0
  6  7  2  0
  7  8  1  0
  8  9  2  0
  9 10  1  0
 10 11  1  0
 11 12  2  0
 11 13  1  0
 13 14  1  0
 13 15  1  0
 13 16  1  0
  9 17  1  0
 17 18  2  0
 18  6  1  0
  1 19  1  0
  1 20  1  0
  1 21  1  0
  2 22  1  0
  2 23  1  0
  7 24  1  0
  8 25  1  0
 10 26  1  0
 17 27  1  0
 18 28  1  0
M  END
>  <loss>  (24) 
0.49363064765930176

>  <score>  (24) 
2.5224997997283936

$$$$
BWMNPXMUYHYRHS-UHFFFAOYSA-N
     RDKit          3D

 28 28  0  0  0  0  0  0  0  0999 V2000
  125.6536  120.3588   89.9179 C   0  0  0  0  0  0  0  0  0  0  0  0
  125.6422  121.6065   89.0564 C   0  0  0  0  0  0  0  0  0  0  0  0
  124.3824  121.6676   88.3763 O   0  0  0  0  0  0  0  0  0  0  0  0
  124.4834  121.8746   87.0395 C   0  0  0  0  0  0  0  0  0  0  0  0
  125.5055  121.7859   86.3781 O   0  0  0  0  0  0  0  0  0  0  0  0
  123.1582  122.2330   86.4641 C   0  0  0  0  0  0  0  0  0  0  0  0
  123.1230  122.8398   85.2040 C   0  0  0  0  0  0  0  0  0  0  0  0
  121.9018  123.1973   84.6169 C   0  0  0  0  0  0  0  0  0  0  0  0
  120.6987  122.9541   85.2804 C   0  0  0  0  0  0  0  0  0  0  0  0
  119.4267  123.2789   84.7663 N   0  0  0  0  0  0  0  0  0  0  0  0
  119.0492  123.4248   83.4254 C   0  0  0  0  0  0  0  0  0  0  0  0
  119.8501  123.5699   82.5015 O   0  0  0  0  0  0  0  0  0  0  0  0
  117.5150  123.3491   83.1967 C   0  0  0  0  0  0  0  0  0  0  0  0
  116.8532  125.0005   83.3643 Cl  0  0  0  0  0  0  0  0  0  0  0  0
  117.2022  122.7590   81.5348 Cl  0  0  0  0  0  0  0  0  0  0  0  0
  116.7363  122.2603   84.3649 Cl  0  0  0  0  0  0  0  0  0  0  0  0
  120.7360  122.3455   86.5423 C   0  0  0  0  0  0  0  0  0  0  0  0
  121.9543  121.9868   87.1322 C   0  0  0  0  0  0  0  0  0  0  0  0
  125.6510  120.6463   90.9796 H   0  0  0  0  0  0  0  0  0  0  0  0
  124.7610  119.7542   89.6995 H   0  0  0  0  0  0  0  0  0  0  0  0
  126.5572  119.7707   89.6995 H   0  0  0  0  0  0  0  0  0  0  0  0
  125.7676  122.4974   89.6893 H   0  0  0  0  0  0  0  0  0  0  0  0
  126.4665  121.5742   88.3287 H   0  0  0  0  0  0  0  0  0  0  0  0
  124.0633  123.0382   84.6687 H   0  0  0  0  0  0  0  0  0  0  0  0
  121.8917  123.6733   83.6253 H   0  0  0  0  0  0  0  0  0  0  0  0
  118.6829  123.4273   85.4632 H   0  0  0  0  0  0  0  0  0  0  0  0
  119.7953  122.1468   87.0767 H   0  0  0  0  0  0  0  0  0  0  0  0
  121.9645  121.5103   88.1236 H   0  0  0  0  0  0  0  0  0  0  0  0
  1  2  1  0
  2  3  1  0
  3  4  1  0
  4  5  2  0
  4  6  1  0
  6  7  2  0
  7  8  1  0
  8  9  2  0
  9 10  1  0
 10 11  1  0
 11 12  2  0
 11 13  1  0
 13 14  1  0
 13 15  1  0
 13 16  1  0
  9 17  1  0
 17 18  2  0
 18  6  1  0
  1 19  1  0
  1 20  1  0
  1 21  1  0
  2 22  1  0
  2 23  1  0
  7 24  1  0
  8 25  1  0
 10 26  1  0
 17 27  1  0
 18 28  1  0
M  END
>  <loss>  (25) 
0.4975053071975708

>  <score>  (25) 
2.421674966812134

$$$$
