CHEQLSSMGDBGBI-UHFFFAOYSA-N
     RDKit          3D

 31 31  0  0  0  0  0  0  0  0999 V2000
  118.7185  124.6693   84.7693 C   0  0  0  0  0  0  0  0  0  0  0  0
  119.5138  123.3769   84.7217 C   0  0  0  0  0  0  0  0  0  0  0  0
  119.5211  122.8166   86.0336 O   0  0  0  0  0  0  0  0  0  0  0  0
  120.7423  122.5945   86.6072 C   0  0  0  0  0  0  0  0  0  0  0  0
  121.9807  122.9265   86.0584 C   0  0  0  0  0  0  0  0  0  0  0  0
  123.1577  122.6427   86.7616 C   0  0  0  0  0  0  0  0  0  0  0  0
  123.1128  122.0425   88.0233 C   0  0  0  0  0  0  0  0  0  0  0  0
  124.2794  121.7261   88.7347 N   0  0  0  0  0  0  0  0  0  0  0  0
  125.3912  121.4833   88.1061 C   0  0  0  0  0  0  0  0  0  0  0  0
  126.4820  121.1254   88.8286 N   0  0  0  0  0  0  0  0  0  0  0  0
  125.5113  121.5202   86.7509 N   0  0  0  0  0  0  0  0  0  0  0  0
  126.5546  122.0919   86.2522 C   0  0  0  0  0  0  0  0  0  0  0  0
  127.6066  122.6549   86.8906 N   0  0  0  0  0  0  0  0  0  0  0  0
  126.7054  122.1373   84.9077 N   0  0  0  0  0  0  0  0  0  0  0  0
  121.8722  121.6906   88.5558 C   0  0  0  0  0  0  0  0  0  0  0  0
  120.6953  121.9728   87.8571 C   0  0  0  0  0  0  0  0  0  0  0  0
  118.5435  124.9537   85.8174 H   0  0  0  0  0  0  0  0  0  0  0  0
  119.2829  125.4659   84.2625 H   0  0  0  0  0  0  0  0  0  0  0  0
  117.7530  124.5246   84.2625 H   0  0  0  0  0  0  0  0  0  0  0  0
  119.0431  122.6744   84.0182 H   0  0  0  0  0  0  0  0  0  0  0  0
  120.5420  123.5726   84.3834 H   0  0  0  0  0  0  0  0  0  0  0  0
  122.0327  123.4115   85.0725 H   0  0  0  0  0  0  0  0  0  0  0  0
  124.1308  122.8955   86.3153 H   0  0  0  0  0  0  0  0  0  0  0  0
  127.3734  120.9282   88.3518 H   0  0  0  0  0  0  0  0  0  0  0  0
  126.4188  121.0507   89.8539 H   0  0  0  0  0  0  0  0  0  0  0  0
  128.3730  123.0769   86.3470 H   0  0  0  0  0  0  0  0  0  0  0  0
  127.6409  122.6614   87.9200 H   0  0  0  0  0  0  0  0  0  0  0  0
  127.5341  122.5910   84.4975 H   0  0  0  0  0  0  0  0  0  0  0  0
  125.9915  121.7181   84.2949 H   0  0  0  0  0  0  0  0  0  0  0  0
  121.8201  121.1873   89.5325 H   0  0  0  0  0  0  0  0  0  0  0  0
  119.7231  121.7029   88.2954 H   0  0  0  0  0  0  0  0  0  0  0  0
  1  2  1  0
  2  3  1  0
  3  4  1  0
  4  5  2  0
  5  6  1  0
  6  7  2  0
  7  8  1  0
  8  9  2  3
  9 10  1  0
  9 11  1  0
 11 12  2  3
 12 13  1  0
 12 14  1  0
  7 15  1  0
 15 16  2  0
 16  4  1  0
  1 17  1  0
  1 18  1  0
  1 19  1  0
  2 20  1  0
  2 21  1  0
  5 22  1  0
  6 23  1  0
 10 24  1  0
 10 25  1  0
 13 26  1  0
 13 27  1  0
 14 28  1  0
 14 29  1  0
 15 30  1  0
 16 31  1  0
M  END
>  <loss>  (1) 
0.48183315992355347

>  <score>  (1) 
4.113186359405518

$$$$
CHEQLSSMGDBGBI-UHFFFAOYSA-N
     RDKit          3D

 31 31  0  0  0  0  0  0  0  0999 V2000
  118.7061  124.5779   84.8112 C   0  0  0  0  0  0  0  0  0  0  0  0
  119.5928  123.3517   84.6878 C   0  0  0  0  0  0  0  0  0  0  0  0
  119.5956  122.6826   85.9477 O   0  0  0  0  0  0  0  0  0  0  0  0
  120.8005  122.5579   86.5820 C   0  0  0  0  0  0  0  0  0  0  0  0
  121.9983  123.1592   86.1965 C   0  0  0  0  0  0  0  0  0  0  0  0
  123.1621  122.9466   86.9453 C   0  0  0  0  0  0  0  0  0  0  0  0
  123.1412  122.1487   88.0929 C   0  0  0  0  0  0  0  0  0  0  0  0
  124.2996  121.9013   88.8440 N   0  0  0  0  0  0  0  0  0  0  0  0
  125.3919  121.5035   88.2620 C   0  0  0  0  0  0  0  0  0  0  0  0
  126.4728  121.2207   89.0312 N   0  0  0  0  0  0  0  0  0  0  0  0
  125.4987  121.3060   86.9196 N   0  0  0  0  0  0  0  0  0  0  0  0
  126.5304  121.7930   86.3175 C   0  0  0  0  0  0  0  0  0  0  0  0
  127.5816  122.4687   86.8366 N   0  0  0  0  0  0  0  0  0  0  0  0
  126.6679  121.6061   84.9838 N   0  0  0  0  0  0  0  0  0  0  0  0
  121.9454  121.5302   88.4591 C   0  0  0  0  0  0  0  0  0  0  0  0
  120.7817  121.7406   87.7146 C   0  0  0  0  0  0  0  0  0  0  0  0
  118.5413  124.8057   85.8746 H   0  0  0  0  0  0  0  0  0  0  0  0
  119.1950  125.4344   84.3241 H   0  0  0  0  0  0  0  0  0  0  0  0
  117.7394  124.3819   84.3241 H   0  0  0  0  0  0  0  0  0  0  0  0
  119.1976  122.6817   83.9100 H   0  0  0  0  0  0  0  0  0  0  0  0
  120.6153  123.6455   84.4083 H   0  0  0  0  0  0  0  0  0  0  0  0
  122.0287  123.8010   85.3036 H   0  0  0  0  0  0  0  0  0  0  0  0
  124.1055  123.4137   86.6263 H   0  0  0  0  0  0  0  0  0  0  0  0
  127.3488  120.9039   88.5918 H   0  0  0  0  0  0  0  0  0  0  0  0
  126.4174  121.3227   90.0546 H   0  0  0  0  0  0  0  0  0  0  0  0
  128.3378  122.7977   86.2195 H   0  0  0  0  0  0  0  0  0  0  0  0
  127.6257  122.6539   87.8489 H   0  0  0  0  0  0  0  0  0  0  0  0
  127.4872  121.9901   84.4918 H   0  0  0  0  0  0  0  0  0  0  0  0
  125.9531  121.0800   84.4611 H   0  0  0  0  0  0  0  0  0  0  0  0
  121.9185  120.8722   89.3402 H   0  0  0  0  0  0  0  0  0  0  0  0
  119.8425  121.2582   88.0231 H   0  0  0  0  0  0  0  0  0  0  0  0
  1  2  1  0
  2  3  1  0
  3  4  1  0
  4  5  2  0
  5  6  1  0
  6  7  2  0
  7  8  1  0
  8  9  2  3
  9 10  1  0
  9 11  1  0
 11 12  2  3
 12 13  1  0
 12 14  1  0
  7 15  1  0
 15 16  2  0
 16  4  1  0
  1 17  1  0
  1 18  1  0
  1 19  1  0
  2 20  1  0
  2 21  1  0
  5 22  1  0
  6 23  1  0
 10 24  1  0
 10 25  1  0
 13 26  1  0
 13 27  1  0
 14 28  1  0
 14 29  1  0
 15 30  1  0
 16 31  1  0
M  END
>  <loss>  (2) 
0.4997924864292145

>  <score>  (2) 
4.186279296875

$$$$
CHEQLSSMGDBGBI-UHFFFAOYSA-N
     RDKit          3D

 31 31  0  0  0  0  0  0  0  0999 V2000
  118.6721  124.0110   84.1494 C   0  0  0  0  0  0  0  0  0  0  0  0
  119.3930  124.1055   85.4823 C   0  0  0  0  0  0  0  0  0  0  0  0
  119.6428  122.7788   85.9419 O   0  0  0  0  0  0  0  0  0  0  0  0
  120.8321  122.5572   86.5804 C   0  0  0  0  0  0  0  0  0  0  0  0
  122.0793  123.0416   86.1857 C   0  0  0  0  0  0  0  0  0  0  0  0
  123.2201  122.7361   86.9376 C   0  0  0  0  0  0  0  0  0  0  0  0
  123.1310  121.9355   88.0786 C   0  0  0  0  0  0  0  0  0  0  0  0
  124.2691  121.6595   88.8497 N   0  0  0  0  0  0  0  0  0  0  0  0
  125.4026  121.4524   88.2509 C   0  0  0  0  0  0  0  0  0  0  0  0
  126.4869  121.1446   89.0129 N   0  0  0  0  0  0  0  0  0  0  0  0
  125.5446  121.4732   86.8974 N   0  0  0  0  0  0  0  0  0  0  0  0
  126.5884  122.0540   86.4109 C   0  0  0  0  0  0  0  0  0  0  0  0
  126.7354  122.1426   85.0688 N   0  0  0  0  0  0  0  0  0  0  0  0
  127.6093  122.6539   87.0631 N   0  0  0  0  0  0  0  0  0  0  0  0
  121.8796  121.4663   88.4788 C   0  0  0  0  0  0  0  0  0  0  0  0
  120.7388  121.7711   87.7315 C   0  0  0  0  0  0  0  0  0  0  0  0
  117.5953  123.8698   84.3242 H   0  0  0  0  0  0  0  0  0  0  0  0
  118.8326  124.9379   83.5792 H   0  0  0  0  0  0  0  0  0  0  0  0
  119.0662  123.1568   83.5792 H   0  0  0  0  0  0  0  0  0  0  0  0
  120.3448  124.6421   85.3550 H   0  0  0  0  0  0  0  0  0  0  0  0
  118.7786  124.6539   86.2116 H   0  0  0  0  0  0  0  0  0  0  0  0
  122.1666  123.6641   85.2830 H   0  0  0  0  0  0  0  0  0  0  0  0
  124.1982  123.1313   86.6260 H   0  0  0  0  0  0  0  0  0  0  0  0
  127.3992  120.9751   88.5658 H   0  0  0  0  0  0  0  0  0  0  0  0
  126.3955  121.0812   90.0368 H   0  0  0  0  0  0  0  0  0  0  0  0
  127.5655  122.6047   84.6710 H   0  0  0  0  0  0  0  0  0  0  0  0
  126.0171  121.7480   84.4449 H   0  0  0  0  0  0  0  0  0  0  0  0
  128.3817  123.0789   86.5306 H   0  0  0  0  0  0  0  0  0  0  0  0
  127.6147  122.6859   88.0926 H   0  0  0  0  0  0  0  0  0  0  0  0
  121.7905  120.8530   89.3877 H   0  0  0  0  0  0  0  0  0  0  0  0
  119.7586  121.3886   88.0524 H   0  0  0  0  0  0  0  0  0  0  0  0
  1  2  1  0
  2  3  1  0
  3  4  1  0
  4  5  2  0
  5  6  1  0
  6  7  2  0
  7  8  1  0
  8  9  2  3
  9 10  1  0
  9 11  1  0
 11 12  2  3
 12 13  1  0
 12 14  1  0
  7 15  1  0
 15 16  2  0
 16  4  1  0
  1 17  1  0
  1 18  1  0
  1 19  1  0
  2 20  1  0
  2 21  1  0
  5 22  1  0
  6 23  1  0
 10 24  1  0
 10 25  1  0
 13 26  1  0
 13 27  1  0
 14 28  1  0
 14 29  1  0
 15 30  1  0
 16 31  1  0
M  END
>  <loss>  (3) 
0.5058737397193909

>  <score>  (3) 
4.212499618530273

$$$$
CHEQLSSMGDBGBI-UHFFFAOYSA-N
     RDKit          3D

 31 31  0  0  0  0  0  0  0  0999 V2000
  118.8728  124.0843   84.1415 C   0  0  0  0  0  0  0  0  0  0  0  0
  119.1483  123.9974   85.6321 C   0  0  0  0  0  0  0  0  0  0  0  0
  119.5877  122.6718   85.9212 O   0  0  0  0  0  0  0  0  0  0  0  0
  120.7922  122.5423   86.5563 C   0  0  0  0  0  0  0  0  0  0  0  0
  121.9673  123.2225   86.2360 C   0  0  0  0  0  0  0  0  0  0  0  0
  123.1342  122.9923   86.9745 C   0  0  0  0  0  0  0  0  0  0  0  0
  123.1446  122.0744   88.0271 C   0  0  0  0  0  0  0  0  0  0  0  0
  124.3049  121.8709   88.7877 N   0  0  0  0  0  0  0  0  0  0  0  0
  125.4035  121.5304   88.1849 C   0  0  0  0  0  0  0  0  0  0  0  0
  126.5086  121.2965   88.9433 N   0  0  0  0  0  0  0  0  0  0  0  0
  125.4873  121.3422   86.8395 N   0  0  0  0  0  0  0  0  0  0  0  0
  126.5272  121.8028   86.2313 C   0  0  0  0  0  0  0  0  0  0  0  0
  126.6186  121.6831   84.8866 N   0  0  0  0  0  0  0  0  0  0  0  0
  127.5942  122.4541   86.7457 N   0  0  0  0  0  0  0  0  0  0  0  0
  121.9635  121.4080   88.3544 C   0  0  0  0  0  0  0  0  0  0  0  0
  120.7966  121.6370   87.6203 C   0  0  0  0  0  0  0  0  0  0  0  0
  117.8354  124.4120   83.9789 H   0  0  0  0  0  0  0  0  0  0  0  0
  119.5622  124.8085   83.6829 H   0  0  0  0  0  0  0  0  0  0  0  0
  119.0213  123.0956   83.6829 H   0  0  0  0  0  0  0  0  0  0  0  0
  119.9304  124.7191   85.9102 H   0  0  0  0  0  0  0  0  0  0  0  0
  118.2383  124.2321   86.2037 H   0  0  0  0  0  0  0  0  0  0  0  0
  121.9771  123.9402   85.4024 H   0  0  0  0  0  0  0  0  0  0  0  0
  124.0537  123.5411   86.7228 H   0  0  0  0  0  0  0  0  0  0  0  0
  127.3942  121.0248   88.4930 H   0  0  0  0  0  0  0  0  0  0  0  0
  126.4596  121.3911   89.9678 H   0  0  0  0  0  0  0  0  0  0  0  0
  127.4452  122.0479   84.3921 H   0  0  0  0  0  0  0  0  0  0  0  0
  125.8616  121.2271   84.3575 H   0  0  0  0  0  0  0  0  0  0  0  0
  128.3561  122.7643   86.1259 H   0  0  0  0  0  0  0  0  0  0  0  0
  127.6453  122.6402   87.7575 H   0  0  0  0  0  0  0  0  0  0  0  0
  121.9505  120.6985   89.1949 H   0  0  0  0  0  0  0  0  0  0  0  0
  119.8733  121.0995   87.8825 H   0  0  0  0  0  0  0  0  0  0  0  0
  1  2  1  0
  2  3  1  0
  3  4  1  0
  4  5  2  0
  5  6  1  0
  6  7  2  0
  7  8  1  0
  8  9  2  3
  9 10  1  0
  9 11  1  0
 11 12  2  3
 12 13  1  0
 12 14  1  0
  7 15  1  0
 15 16  2  0
 16  4  1  0
  1 17  1  0
  1 18  1  0
  1 19  1  0
  2 20  1  0
  2 21  1  0
  5 22  1  0
  6 23  1  0
 10 24  1  0
 10 25  1  0
 13 26  1  0
 13 27  1  0
 14 28  1  0
 14 29  1  0
 15 30  1  0
 16 31  1  0
M  END
>  <loss>  (4) 
0.47195616364479065

>  <score>  (4) 
4.037827014923096

$$$$
CHEQLSSMGDBGBI-UHFFFAOYSA-N
     RDKit          3D

 31 31  0  0  0  0  0  0  0  0999 V2000
  119.4246  124.4235   84.1853 C   0  0  0  0  0  0  0  0  0  0  0  0
  119.3243  124.1583   85.6767 C   0  0  0  0  0  0  0  0  0  0  0  0
  119.5930  122.7745   85.8964 O   0  0  0  0  0  0  0  0  0  0  0  0
  120.7245  122.4642   86.5983 C   0  0  0  0  0  0  0  0  0  0  0  0
  121.9194  122.7187   85.9199 C   0  0  0  0  0  0  0  0  0  0  0  0
  123.1508  122.4454   86.5206 C   0  0  0  0  0  0  0  0  0  0  0  0
  123.2007  121.9014   87.8037 C   0  0  0  0  0  0  0  0  0  0  0  0
  124.4377  121.6419   88.4057 N   0  0  0  0  0  0  0  0  0  0  0  0
  125.5012  121.5397   87.6676 C   0  0  0  0  0  0  0  0  0  0  0  0
  125.5501  121.6825   86.3139 N   0  0  0  0  0  0  0  0  0  0  0  0
  126.7093  121.2695   88.2483 N   0  0  0  0  0  0  0  0  0  0  0  0
  127.0822  121.8258   89.3473 C   0  0  0  0  0  0  0  0  0  0  0  0
  126.4578  122.7529   90.1107 N   0  0  0  0  0  0  0  0  0  0  0  0
  128.2804  121.5190   89.8982 N   0  0  0  0  0  0  0  0  0  0  0  0
  122.0071  121.6628   88.4884 C   0  0  0  0  0  0  0  0  0  0  0  0
  120.7724  121.9364   87.8887 C   0  0  0  0  0  0  0  0  0  0  0  0
  119.8092  125.4406   84.0187 H   0  0  0  0  0  0  0  0  0  0  0  0
  120.1088  123.6934   83.7282 H   0  0  0  0  0  0  0  0  0  0  0  0
  118.4286  124.3287   83.7282 H   0  0  0  0  0  0  0  0  0  0  0  0
  120.0613  124.7720   86.2156 H   0  0  0  0  0  0  0  0  0  0  0  0
  118.3202  124.4162   86.0445 H   0  0  0  0  0  0  0  0  0  0  0  0
  121.8902  123.1381   84.9034 H   0  0  0  0  0  0  0  0  0  0  0  0
  124.0841  122.6601   85.9796 H   0  0  0  0  0  0  0  0  0  0  0  0
  126.4470  121.5822   85.8175 H   0  0  0  0  0  0  0  0  0  0  0  0
  124.6901  121.8907   85.7867 H   0  0  0  0  0  0  0  0  0  0  0  0
  126.9045  123.0953   90.9733 H   0  0  0  0  0  0  0  0  0  0  0  0
  125.5360  123.1159   89.8290 H   0  0  0  0  0  0  0  0  0  0  0  0
  128.5728  121.9679   90.7779 H   0  0  0  0  0  0  0  0  0  0  0  0
  128.8995  120.8367   89.4376 H   0  0  0  0  0  0  0  0  0  0  0  0
  122.0376  121.2556   89.5098 H   0  0  0  0  0  0  0  0  0  0  0  0
  119.8392  121.7351   88.4352 H   0  0  0  0  0  0  0  0  0  0  0  0
  1  2  1  0
  2  3  1  0
  3  4  1  0
  4  5  2  0
  5  6  1  0
  6  7  2  0
  7  8  1  0
  8  9  2  3
  9 10  1  0
  9 11  1  0
 11 12  2  3
 12 13  1  0
 12 14  1  0
  7 15  1  0
 15 16  2  0
 16  4  1  0
  1 17  1  0
  1 18  1  0
  1 19  1  0
  2 20  1  0
  2 21  1  0
  5 22  1  0
  6 23  1  0
 10 24  1  0
 10 25  1  0
 13 26  1  0
 13 27  1  0
 14 28  1  0
 14 29  1  0
 15 30  1  0
 16 31  1  0
M  END
>  <loss>  (5) 
0.726440966129303

>  <score>  (5) 
4.585052967071533

$$$$
CHEQLSSMGDBGBI-UHFFFAOYSA-N
     RDKit          3D

 31 31  0  0  0  0  0  0  0  0999 V2000
  119.5158  124.5119   84.2914 C   0  0  0  0  0  0  0  0  0  0  0  0
  119.2669  124.1115   85.7351 C   0  0  0  0  0  0  0  0  0  0  0  0
  119.6115  122.7440   85.9495 O   0  0  0  0  0  0  0  0  0  0  0  0
  120.7365  122.4489   86.6657 C   0  0  0  0  0  0  0  0  0  0  0  0
  120.7856  121.9966   87.9837 C   0  0  0  0  0  0  0  0  0  0  0  0
  122.0199  121.7375   88.5921 C   0  0  0  0  0  0  0  0  0  0  0  0
  123.2133  121.9189   87.8917 C   0  0  0  0  0  0  0  0  0  0  0  0
  124.4354  121.6724   88.5291 N   0  0  0  0  0  0  0  0  0  0  0  0
  125.4996  121.4567   87.8175 C   0  0  0  0  0  0  0  0  0  0  0  0
  125.5623  121.3904   86.4596 N   0  0  0  0  0  0  0  0  0  0  0  0
  126.6799  121.2074   88.4583 N   0  0  0  0  0  0  0  0  0  0  0  0
  127.1290  122.0247   89.3501 C   0  0  0  0  0  0  0  0  0  0  0  0
  128.3166  121.7716   89.9477 N   0  0  0  0  0  0  0  0  0  0  0  0
  126.5927  123.1909   89.7815 N   0  0  0  0  0  0  0  0  0  0  0  0
  123.1637  122.3930   86.5805 C   0  0  0  0  0  0  0  0  0  0  0  0
  121.9329  122.6502   85.9714 C   0  0  0  0  0  0  0  0  0  0  0  0
  120.0965  125.4457   84.2648 H   0  0  0  0  0  0  0  0  0  0  0  0
  120.0784  123.7157   83.7819 H   0  0  0  0  0  0  0  0  0  0  0  0
  118.5529  124.6642   83.7819 H   0  0  0  0  0  0  0  0  0  0  0  0
  119.8778  124.7449   86.3952 H   0  0  0  0  0  0  0  0  0  0  0  0
  118.1979  124.2442   85.9579 H   0  0  0  0  0  0  0  0  0  0  0  0
  119.8531  121.8431   88.5465 H   0  0  0  0  0  0  0  0  0  0  0  0
  122.0492  121.3868   89.6343 H   0  0  0  0  0  0  0  0  0  0  0  0
  126.4636  121.2132   85.9937 H   0  0  0  0  0  0  0  0  0  0  0  0
  124.7083  121.5174   85.8978 H   0  0  0  0  0  0  0  0  0  0  0  0
  128.6826  122.4187   90.6606 H   0  0  0  0  0  0  0  0  0  0  0  0
  128.8545  120.9320   89.6896 H   0  0  0  0  0  0  0  0  0  0  0  0
  127.0726  123.7407   90.5083 H   0  0  0  0  0  0  0  0  0  0  0  0
  125.7050  123.5282   89.3827 H   0  0  0  0  0  0  0  0  0  0  0  0
  124.0970  122.5649   86.0242 H   0  0  0  0  0  0  0  0  0  0  0  0
  121.9050  123.0152   84.9341 H   0  0  0  0  0  0  0  0  0  0  0  0
  1  2  1  0
  2  3  1  0
  3  4  1  0
  4  5  2  0
  5  6  1  0
  6  7  2  0
  7  8  1  0
  8  9  2  3
  9 10  1  0
  9 11  1  0
 11 12  2  3
 12 13  1  0
 12 14  1  0
  7 15  1  0
 15 16  2  0
 16  4  1  0
  1 17  1  0
  1 18  1  0
  1 19  1  0
  2 20  1  0
  2 21  1  0
  5 22  1  0
  6 23  1  0
 10 24  1  0
 10 25  1  0
 13 26  1  0
 13 27  1  0
 14 28  1  0
 14 29  1  0
 15 30  1  0
 16 31  1  0
M  END
>  <loss>  (6) 
0.7341470718383789

>  <score>  (6) 
4.574060440063477

$$$$
CHEQLSSMGDBGBI-UHFFFAOYSA-N
     RDKit          3D

 31 31  0  0  0  0  0  0  0  0999 V2000
  119.5639  124.5317   84.2134 C   0  0  0  0  0  0  0  0  0  0  0  0
  119.2917  124.1411   85.6556 C   0  0  0  0  0  0  0  0  0  0  0  0
  119.6078  122.7679   85.8783 O   0  0  0  0  0  0  0  0  0  0  0  0
  120.7215  122.4546   86.6045 C   0  0  0  0  0  0  0  0  0  0  0  0
  121.9292  122.7009   85.9450 C   0  0  0  0  0  0  0  0  0  0  0  0
  123.1505  122.4294   86.5668 C   0  0  0  0  0  0  0  0  0  0  0  0
  123.1793  121.8979   87.8551 C   0  0  0  0  0  0  0  0  0  0  0  0
  124.4068  121.6421   88.4776 N   0  0  0  0  0  0  0  0  0  0  0  0
  125.4656  121.4459   87.7521 C   0  0  0  0  0  0  0  0  0  0  0  0
  125.5293  121.5074   86.3930 N   0  0  0  0  0  0  0  0  0  0  0  0
  126.6636  121.2052   88.3644 N   0  0  0  0  0  0  0  0  0  0  0  0
  127.1658  122.0393   89.2065 C   0  0  0  0  0  0  0  0  0  0  0  0
  128.3522  121.7792   89.8053 N   0  0  0  0  0  0  0  0  0  0  0  0
  126.6796  123.2201   89.6567 N   0  0  0  0  0  0  0  0  0  0  0  0
  121.9740  121.6725   88.5236 C   0  0  0  0  0  0  0  0  0  0  0  0
  120.7493  121.9443   87.9018 C   0  0  0  0  0  0  0  0  0  0  0  0
  120.1926  125.4340   84.1903 H   0  0  0  0  0  0  0  0  0  0  0  0
  120.0850  123.7085   83.7026 H   0  0  0  0  0  0  0  0  0  0  0  0
  118.6112  124.7354   83.7026 H   0  0  0  0  0  0  0  0  0  0  0  0
  119.9073  124.7650   86.3203 H   0  0  0  0  0  0  0  0  0  0  0  0
  118.2230  124.2948   85.8663 H   0  0  0  0  0  0  0  0  0  0  0  0
  121.9178  123.1130   84.9252 H   0  0  0  0  0  0  0  0  0  0  0  0
  124.0927  122.6358   86.0379 H   0  0  0  0  0  0  0  0  0  0  0  0
  126.4229  121.3345   85.9110 H   0  0  0  0  0  0  0  0  0  0  0  0
  124.6837  121.7267   85.8472 H   0  0  0  0  0  0  0  0  0  0  0  0
  128.7478  122.4513   90.4781 H   0  0  0  0  0  0  0  0  0  0  0  0
  128.8590  120.9092   89.5879 H   0  0  0  0  0  0  0  0  0  0  0  0
  127.2173  123.7712   90.3407 H   0  0  0  0  0  0  0  0  0  0  0  0
  125.7720  123.5672   89.3150 H   0  0  0  0  0  0  0  0  0  0  0  0
  121.9869  121.2770   89.5500 H   0  0  0  0  0  0  0  0  0  0  0  0
  119.8075  121.7549   88.4376 H   0  0  0  0  0  0  0  0  0  0  0  0
  1  2  1  0
  2  3  1  0
  3  4  1  0
  4  5  2  0
  5  6  1  0
  6  7  2  0
  7  8  1  0
  8  9  2  3
  9 10  1  0
  9 11  1  0
 11 12  2  3
 12 13  1  0
 12 14  1  0
  7 15  1  0
 15 16  2  0
 16  4  1  0
  1 17  1  0
  1 18  1  0
  1 19  1  0
  2 20  1  0
  2 21  1  0
  5 22  1  0
  6 23  1  0
 10 24  1  0
 10 25  1  0
 13 26  1  0
 13 27  1  0
 14 28  1  0
 14 29  1  0
 15 30  1  0
 16 31  1  0
M  END
>  <loss>  (7) 
0.7228804230690002

>  <score>  (7) 
4.397732734680176

$$$$
CHEQLSSMGDBGBI-UHFFFAOYSA-N
     RDKit          3D

 31 31  0  0  0  0  0  0  0  0999 V2000
  119.5573  124.4357   84.1968 C   0  0  0  0  0  0  0  0  0  0  0  0
  119.2917  124.0936   85.6519 C   0  0  0  0  0  0  0  0  0  0  0  0
  119.6212  122.7194   85.8477 O   0  0  0  0  0  0  0  0  0  0  0  0
  120.7357  122.4467   86.5912 C   0  0  0  0  0  0  0  0  0  0  0  0
  121.9461  122.7233   85.9501 C   0  0  0  0  0  0  0  0  0  0  0  0
  123.1629  122.4889   86.5953 C   0  0  0  0  0  0  0  0  0  0  0  0
  123.1830  121.9621   87.8864 C   0  0  0  0  0  0  0  0  0  0  0  0
  124.4050  121.7416   88.5329 N   0  0  0  0  0  0  0  0  0  0  0  0
  125.4536  121.4298   87.8332 C   0  0  0  0  0  0  0  0  0  0  0  0
  125.5009  121.3070   86.4775 N   0  0  0  0  0  0  0  0  0  0  0  0
  126.6459  121.1967   88.4608 N   0  0  0  0  0  0  0  0  0  0  0  0
  127.1539  122.0296   89.3001 C   0  0  0  0  0  0  0  0  0  0  0  0
  126.7061  123.2408   89.7060 N   0  0  0  0  0  0  0  0  0  0  0  0
  128.3298  121.7539   89.9122 N   0  0  0  0  0  0  0  0  0  0  0  0
  121.9732  121.7015   88.5336 C   0  0  0  0  0  0  0  0  0  0  0  0
  120.7530  121.9361   87.8893 C   0  0  0  0  0  0  0  0  0  0  0  0
  120.2310  125.3036   84.1413 H   0  0  0  0  0  0  0  0  0  0  0  0
  120.0262  123.5751   83.6974 H   0  0  0  0  0  0  0  0  0  0  0  0
  118.6072  124.6765   83.6974 H   0  0  0  0  0  0  0  0  0  0  0  0
  119.9149  124.7236   86.3035 H   0  0  0  0  0  0  0  0  0  0  0  0
  118.2353  124.2729   85.9004 H   0  0  0  0  0  0  0  0  0  0  0  0
  121.9408  123.1294   84.9278 H   0  0  0  0  0  0  0  0  0  0  0  0
  124.1084  122.7208   86.0832 H   0  0  0  0  0  0  0  0  0  0  0  0
  126.3853  121.0544   86.0139 H   0  0  0  0  0  0  0  0  0  0  0  0
  124.6523  121.4666   85.9160 H   0  0  0  0  0  0  0  0  0  0  0  0
  127.2445  123.7843   90.3956 H   0  0  0  0  0  0  0  0  0  0  0  0
  125.8269  123.6189   89.3252 H   0  0  0  0  0  0  0  0  0  0  0  0
  128.7310  122.4248   90.5829 H   0  0  0  0  0  0  0  0  0  0  0  0
  128.8231  120.8733   89.7072 H   0  0  0  0  0  0  0  0  0  0  0  0
  121.9793  121.3077   89.5607 H   0  0  0  0  0  0  0  0  0  0  0  0
  119.8072  121.7178   88.4068 H   0  0  0  0  0  0  0  0  0  0  0  0
  1  2  1  0
  2  3  1  0
  3  4  1  0
  4  5  2  0
  5  6  1  0
  6  7  2  0
  7  8  1  0
  8  9  2  3
  9 10  1  0
  9 11  1  0
 11 12  2  3
 12 13  1  0
 12 14  1  0
  7 15  1  0
 15 16  2  0
 16  4  1  0
  1 17  1  0
  1 18  1  0
  1 19  1  0
  2 20  1  0
  2 21  1  0
  5 22  1  0
  6 23  1  0
 10 24  1  0
 10 25  1  0
 13 26  1  0
 13 27  1  0
 14 28  1  0
 14 29  1  0
 15 30  1  0
 16 31  1  0
M  END
>  <loss>  (8) 
0.74111407995224

>  <score>  (8) 
4.436237812042236

$$$$
CHEQLSSMGDBGBI-UHFFFAOYSA-N
     RDKit          3D

 31 31  0  0  0  0  0  0  0  0999 V2000
  119.4950  124.4396   84.1712 C   0  0  0  0  0  0  0  0  0  0  0  0
  119.2722  124.1165   85.6385 C   0  0  0  0  0  0  0  0  0  0  0  0
  119.5820  122.7508   85.9105 O   0  0  0  0  0  0  0  0  0  0  0  0
  120.6965  122.4584   86.6441 C   0  0  0  0  0  0  0  0  0  0  0  0
  121.9027  122.7797   86.0149 C   0  0  0  0  0  0  0  0  0  0  0  0
  123.1246  122.5376   86.6475 C   0  0  0  0  0  0  0  0  0  0  0  0
  123.1559  121.9608   87.9161 C   0  0  0  0  0  0  0  0  0  0  0  0
  124.3834  121.7346   88.5502 N   0  0  0  0  0  0  0  0  0  0  0  0
  125.4132  121.3764   87.8453 C   0  0  0  0  0  0  0  0  0  0  0  0
  125.4476  121.2323   86.4914 N   0  0  0  0  0  0  0  0  0  0  0  0
  126.6117  121.1651   88.4674 N   0  0  0  0  0  0  0  0  0  0  0  0
  127.2523  122.1276   89.0334 C   0  0  0  0  0  0  0  0  0  0  0  0
  128.4364  121.8956   89.6482 N   0  0  0  0  0  0  0  0  0  0  0  0
  126.9272  123.4365   89.1540 N   0  0  0  0  0  0  0  0  0  0  0  0
  121.9511  121.6602   88.5551 C   0  0  0  0  0  0  0  0  0  0  0  0
  120.7258  121.9025   87.9225 C   0  0  0  0  0  0  0  0  0  0  0  0
  120.1174  125.3425   84.0850 H   0  0  0  0  0  0  0  0  0  0  0  0
  120.0039  123.5955   83.6830 H   0  0  0  0  0  0  0  0  0  0  0  0
  118.5250  124.6150   83.6830 H   0  0  0  0  0  0  0  0  0  0  0  0
  119.9185  124.7617   86.2517 H   0  0  0  0  0  0  0  0  0  0  0  0
  118.2138  124.2923   85.8808 H   0  0  0  0  0  0  0  0  0  0  0  0
  121.8897  123.2282   85.0106 H   0  0  0  0  0  0  0  0  0  0  0  0
  124.0653  122.8030   86.1428 H   0  0  0  0  0  0  0  0  0  0  0  0
  126.3197  120.9421   86.0264 H   0  0  0  0  0  0  0  0  0  0  0  0
  124.6016  121.4134   85.9325 H   0  0  0  0  0  0  0  0  0  0  0  0
  128.9432  122.6708   90.0989 H   0  0  0  0  0  0  0  0  0  0  0  0
  128.8301  120.9440   89.6651 H   0  0  0  0  0  0  0  0  0  0  0  0
  127.5624  124.0817   89.6451 H   0  0  0  0  0  0  0  0  0  0  0  0
  126.0448  123.7869   88.7548 H   0  0  0  0  0  0  0  0  0  0  0  0
  121.9648  121.2282   89.5667 H   0  0  0  0  0  0  0  0  0  0  0  0
  119.7847  121.6538   88.4348 H   0  0  0  0  0  0  0  0  0  0  0  0
  1  2  1  0
  2  3  1  0
  3  4  1  0
  4  5  2  0
  5  6  1  0
  6  7  2  0
  7  8  1  0
  8  9  2  3
  9 10  1  0
  9 11  1  0
 11 12  2  3
 12 13  1  0
 12 14  1  0
  7 15  1  0
 15 16  2  0
 16  4  1  0
  1 17  1  0
  1 18  1  0
  1 19  1  0
  2 20  1  0
  2 21  1  0
  5 22  1  0
  6 23  1  0
 10 24  1  0
 10 25  1  0
 13 26  1  0
 13 27  1  0
 14 28  1  0
 14 29  1  0
 15 30  1  0
 16 31  1  0
M  END
>  <loss>  (9) 
0.7477652430534363

>  <score>  (9) 
4.42065954208374

$$$$
CHEQLSSMGDBGBI-UHFFFAOYSA-N
     RDKit          3D

 31 31  0  0  0  0  0  0  0  0999 V2000
  119.5240  124.4342   84.1909 C   0  0  0  0  0  0  0  0  0  0  0  0
  119.3206  124.1446   85.6678 C   0  0  0  0  0  0  0  0  0  0  0  0
  119.5957  122.7756   85.9594 O   0  0  0  0  0  0  0  0  0  0  0  0
  120.7122  122.4637   86.6817 C   0  0  0  0  0  0  0  0  0  0  0  0
  120.7466  121.9967   87.9950 C   0  0  0  0  0  0  0  0  0  0  0  0
  121.9737  121.7211   88.6108 C   0  0  0  0  0  0  0  0  0  0  0  0
  123.1744  121.9005   87.9225 C   0  0  0  0  0  0  0  0  0  0  0  0
  124.3890  121.6372   88.5672 N   0  0  0  0  0  0  0  0  0  0  0  0
  125.4463  121.3702   87.8627 C   0  0  0  0  0  0  0  0  0  0  0  0
  125.5065  121.2629   86.5073 N   0  0  0  0  0  0  0  0  0  0  0  0
  126.6191  121.1055   88.5110 N   0  0  0  0  0  0  0  0  0  0  0  0
  127.2290  122.0317   89.1706 C   0  0  0  0  0  0  0  0  0  0  0  0
  128.4059  121.7523   89.7777 N   0  0  0  0  0  0  0  0  0  0  0  0
  126.8835  123.3315   89.3281 N   0  0  0  0  0  0  0  0  0  0  0  0
  123.1396  122.3891   86.6161 C   0  0  0  0  0  0  0  0  0  0  0  0
  121.9160  122.6628   85.9997 C   0  0  0  0  0  0  0  0  0  0  0  0
  120.1529  125.3294   84.0760 H   0  0  0  0  0  0  0  0  0  0  0  0
  120.0183  123.5752   83.7135 H   0  0  0  0  0  0  0  0  0  0  0  0
  118.5484  124.6077   83.7135 H   0  0  0  0  0  0  0  0  0  0  0  0
  119.9972  124.7814   86.2565 H   0  0  0  0  0  0  0  0  0  0  0  0
  118.2727  124.3559   85.9269 H   0  0  0  0  0  0  0  0  0  0  0  0
  119.8082  121.8446   88.5484 H   0  0  0  0  0  0  0  0  0  0  0  0
  121.9914  121.3589   89.6494 H   0  0  0  0  0  0  0  0  0  0  0  0
  126.4021  121.0463   86.0471 H   0  0  0  0  0  0  0  0  0  0  0  0
  124.6564  121.3984   85.9417 H   0  0  0  0  0  0  0  0  0  0  0  0
  128.8995  122.4857   90.3063 H   0  0  0  0  0  0  0  0  0  0  0  0
  128.8080  120.8064   89.7110 H   0  0  0  0  0  0  0  0  0  0  0  0
  127.4773  123.9578   89.8902 H   0  0  0  0  0  0  0  0  0  0  0  0
  126.0268  123.6939   88.8858 H   0  0  0  0  0  0  0  0  0  0  0  0
  124.0788  122.5595   86.0695 H   0  0  0  0  0  0  0  0  0  0  0  0
  121.8998  123.0392   84.9662 H   0  0  0  0  0  0  0  0  0  0  0  0
  1  2  1  0
  2  3  1  0
  3  4  1  0
  4  5  2  0
  5  6  1  0
  6  7  2  0
  7  8  1  0
  8  9  2  3
  9 10  1  0
  9 11  1  0
 11 12  2  3
 12 13  1  0
 12 14  1  0
  7 15  1  0
 15 16  2  0
 16  4  1  0
  1 17  1  0
  1 18  1  0
  1 19  1  0
  2 20  1  0
  2 21  1  0
  5 22  1  0
  6 23  1  0
 10 24  1  0
 10 25  1  0
 13 26  1  0
 13 27  1  0
 14 28  1  0
 14 29  1  0
 15 30  1  0
 16 31  1  0
M  END
>  <loss>  (10) 
0.7568356394767761

>  <score>  (10) 
4.455502510070801

$$$$
CHEQLSSMGDBGBI-UHFFFAOYSA-N
     RDKit          3D

 31 31  0  0  0  0  0  0  0  0999 V2000
  119.2703  124.2515   82.6119 C   0  0  0  0  0  0  0  0  0  0  0  0
  119.0479  123.1725   83.6565 C   0  0  0  0  0  0  0  0  0  0  0  0
  119.2601  123.7542   84.9417 O   0  0  0  0  0  0  0  0  0  0  0  0
  120.2876  123.2511   85.6904 C   0  0  0  0  0  0  0  0  0  0  0  0
  121.5468  123.3493   85.0927 C   0  0  0  0  0  0  0  0  0  0  0  0
  122.6846  122.8717   85.7478 C   0  0  0  0  0  0  0  0  0  0  0  0
  122.5738  122.2776   87.0046 C   0  0  0  0  0  0  0  0  0  0  0  0
  123.7190  121.8127   87.6619 N   0  0  0  0  0  0  0  0  0  0  0  0
  124.8467  121.7530   87.0207 C   0  0  0  0  0  0  0  0  0  0  0  0
  125.0501  122.1276   85.7271 N   0  0  0  0  0  0  0  0  0  0  0  0
  125.9649  121.2838   87.6526 N   0  0  0  0  0  0  0  0  0  0  0  0
  125.9631  120.9555   88.8970 C   0  0  0  0  0  0  0  0  0  0  0  0
  124.9697  121.0198   89.8141 N   0  0  0  0  0  0  0  0  0  0  0  0
  127.0881  120.4799   89.4815 N   0  0  0  0  0  0  0  0  0  0  0  0
  121.3177  122.1947   87.6094 C   0  0  0  0  0  0  0  0  0  0  0  0
  120.1766  122.6731   86.9551 C   0  0  0  0  0  0  0  0  0  0  0  0
  119.4680  125.2110   83.1122 H   0  0  0  0  0  0  0  0  0  0  0  0
  120.1316  123.9814   81.9834 H   0  0  0  0  0  0  0  0  0  0  0  0
  118.3723  124.3440   81.9834 H   0  0  0  0  0  0  0  0  0  0  0  0
  118.0191  122.7898   83.5851 H   0  0  0  0  0  0  0  0  0  0  0  0
  119.7432  122.3354   83.4959 H   0  0  0  0  0  0  0  0  0  0  0  0
  121.6431  123.8070   84.0971 H   0  0  0  0  0  0  0  0  0  0  0  0
  123.6713  122.9646   85.2705 H   0  0  0  0  0  0  0  0  0  0  0  0
  125.9866  122.0412   85.3071 H   0  0  0  0  0  0  0  0  0  0  0  0
  124.2674  122.4973   85.1688 H   0  0  0  0  0  0  0  0  0  0  0  0
  125.1413  120.7112   90.7817 H   0  0  0  0  0  0  0  0  0  0  0  0
  124.0421  121.3773   89.5444 H   0  0  0  0  0  0  0  0  0  0  0  0
  127.0799  120.2190   90.4779 H   0  0  0  0  0  0  0  0  0  0  0  0
  127.9520  120.3790   88.9298 H   0  0  0  0  0  0  0  0  0  0  0  0
  121.2241  121.7487   88.6106 H   0  0  0  0  0  0  0  0  0  0  0  0
  119.1917  122.5932   87.4385 H   0  0  0  0  0  0  0  0  0  0  0  0
  1  2  1  0
  2  3  1  0
  3  4  1  0
  4  5  2  0
  5  6  1  0
  6  7  2  0
  7  8  1  0
  8  9  2  3
  9 10  1  0
  9 11  1  0
 11 12  2  3
 12 13  1  0
 12 14  1  0
  7 15  1  0
 15 16  2  0
 16  4  1  0
  1 17  1  0
  1 18  1  0
  1 19  1  0
  2 20  1  0
  2 21  1  0
  5 22  1  0
  6 23  1  0
 10 24  1  0
 10 25  1  0
 13 26  1  0
 13 27  1  0
 14 28  1  0
 14 29  1  0
 15 30  1  0
 16 31  1  0
M  END
>  <loss>  (11) 
0.6631848812103271

>  <score>  (11) 
3.2977662086486816

$$$$
CHEQLSSMGDBGBI-UHFFFAOYSA-N
     RDKit          3D

 31 31  0  0  0  0  0  0  0  0999 V2000
  118.8892  123.7431   82.8037 C   0  0  0  0  0  0  0  0  0  0  0  0
  118.9127  123.3471   84.2692 C   0  0  0  0  0  0  0  0  0  0  0  0
  119.9567  124.0808   84.9060 O   0  0  0  0  0  0  0  0  0  0  0  0
  120.8411  123.3671   85.6673 C   0  0  0  0  0  0  0  0  0  0  0  0
  120.7703  123.1765   87.0474 C   0  0  0  0  0  0  0  0  0  0  0  0
  121.7486  122.4183   87.7016 C   0  0  0  0  0  0  0  0  0  0  0  0
  122.8115  121.8565   86.9908 C   0  0  0  0  0  0  0  0  0  0  0  0
  123.7711  121.0686   87.6424 N   0  0  0  0  0  0  0  0  0  0  0  0
  125.0223  121.4082   87.5694 C   0  0  0  0  0  0  0  0  0  0  0  0
  125.9431  120.6086   88.1726 N   0  0  0  0  0  0  0  0  0  0  0  0
  125.4604  122.4923   86.8727 N   0  0  0  0  0  0  0  0  0  0  0  0
  126.7219  122.5736   86.6173 C   0  0  0  0  0  0  0  0  0  0  0  0
  127.2016  123.6637   85.9752 N   0  0  0  0  0  0  0  0  0  0  0  0
  127.7109  121.7077   86.9329 N   0  0  0  0  0  0  0  0  0  0  0  0
  122.8701  122.0361   85.6085 C   0  0  0  0  0  0  0  0  0  0  0  0
  121.8940  122.7908   84.9523 C   0  0  0  0  0  0  0  0  0  0  0  0
  118.8243  124.8381   82.7207 H   0  0  0  0  0  0  0  0  0  0  0  0
  119.8097  123.3922   82.3142 H   0  0  0  0  0  0  0  0  0  0  0  0
  118.0166  123.2860   82.3142 H   0  0  0  0  0  0  0  0  0  0  0  0
  117.9470  123.5891   84.7370 H   0  0  0  0  0  0  0  0  0  0  0  0
  119.0878  122.2659   84.3707 H   0  0  0  0  0  0  0  0  0  0  0  0
  119.9450  123.6223   87.6221 H   0  0  0  0  0  0  0  0  0  0  0  0
  121.6793  122.2633   88.7885 H   0  0  0  0  0  0  0  0  0  0  0  0
  126.9429  120.8526   88.1314 H   0  0  0  0  0  0  0  0  0  0  0  0
  125.6404  119.7592   88.6704 H   0  0  0  0  0  0  0  0  0  0  0  0
  128.2076  123.7376   85.7669 H   0  0  0  0  0  0  0  0  0  0  0  0
  126.5608  124.4197   85.6947 H   0  0  0  0  0  0  0  0  0  0  0  0
  128.6820  121.9125   86.6574 H   0  0  0  0  0  0  0  0  0  0  0  0
  127.4933  120.8432   87.4488 H   0  0  0  0  0  0  0  0  0  0  0  0
  123.6890  121.5811   85.0320 H   0  0  0  0  0  0  0  0  0  0  0  0
  121.9552  122.9323   83.8632 H   0  0  0  0  0  0  0  0  0  0  0  0
  1  2  1  0
  2  3  1  0
  3  4  1  0
  4  5  2  0
  5  6  1  0
  6  7  2  0
  7  8  1  0
  8  9  2  3
  9 10  1  0
  9 11  1  0
 11 12  2  3
 12 13  1  0
 12 14  1  0
  7 15  1  0
 15 16  2  0
 16  4  1  0
  1 17  1  0
  1 18  1  0
  1 19  1  0
  2 20  1  0
  2 21  1  0
  5 22  1  0
  6 23  1  0
 10 24  1  0
 10 25  1  0
 13 26  1  0
 13 27  1  0
 14 28  1  0
 14 29  1  0
 15 30  1  0
 16 31  1  0
M  END
>  <loss>  (12) 
0.6378548741340637

>  <score>  (12) 
3.170375347137451

$$$$
CHEQLSSMGDBGBI-UHFFFAOYSA-N
     RDKit          3D

 31 31  0  0  0  0  0  0  0  0999 V2000
  119.2636  124.1141   82.5566 C   0  0  0  0  0  0  0  0  0  0  0  0
  118.9839  123.2444   83.7691 C   0  0  0  0  0  0  0  0  0  0  0  0
  119.4256  123.9500   84.9277 O   0  0  0  0  0  0  0  0  0  0  0  0
  120.4061  123.3624   85.6779 C   0  0  0  0  0  0  0  0  0  0  0  0
  121.6354  123.2271   85.0274 C   0  0  0  0  0  0  0  0  0  0  0  0
  122.7240  122.6410   85.6781 C   0  0  0  0  0  0  0  0  0  0  0  0
  122.5913  122.1710   86.9844 C   0  0  0  0  0  0  0  0  0  0  0  0
  123.6892  121.5966   87.6359 N   0  0  0  0  0  0  0  0  0  0  0  0
  124.8755  121.7180   87.1218 C   0  0  0  0  0  0  0  0  0  0  0  0
  125.1847  122.3889   85.9775 N   0  0  0  0  0  0  0  0  0  0  0  0
  125.9491  121.1446   87.7449 N   0  0  0  0  0  0  0  0  0  0  0  0
  126.0788  121.1420   89.0252 C   0  0  0  0  0  0  0  0  0  0  0  0
  125.2892  121.6828   89.9825 N   0  0  0  0  0  0  0  0  0  0  0  0
  127.1497  120.5493   89.6042 N   0  0  0  0  0  0  0  0  0  0  0  0
  121.3676  122.3215   87.6404 C   0  0  0  0  0  0  0  0  0  0  0  0
  120.2759  122.9089   86.9906 C   0  0  0  0  0  0  0  0  0  0  0  0
  119.5848  125.1127   82.8878 H   0  0  0  0  0  0  0  0  0  0  0  0
  120.0594  123.6549   81.9517 H   0  0  0  0  0  0  0  0  0  0  0  0
  118.3494  124.2049   81.9517 H   0  0  0  0  0  0  0  0  0  0  0  0
  117.9051  123.0428   83.8433 H   0  0  0  0  0  0  0  0  0  0  0  0
  119.5129  122.2839   83.6813 H   0  0  0  0  0  0  0  0  0  0  0  0
  121.7471  123.5854   83.9934 H   0  0  0  0  0  0  0  0  0  0  0  0
  123.6891  122.5500   85.1582 H   0  0  0  0  0  0  0  0  0  0  0  0
  126.1608  122.4277   85.6510 H   0  0  0  0  0  0  0  0  0  0  0  0
  124.4424  122.8573   85.4386 H   0  0  0  0  0  0  0  0  0  0  0  0
  125.5442  121.5862   90.9757 H   0  0  0  0  0  0  0  0  0  0  0  0
  124.4333  122.1909   89.7176 H   0  0  0  0  0  0  0  0  0  0  0  0
  127.2474  120.5508   90.6295 H   0  0  0  0  0  0  0  0  0  0  0  0
  127.8667  120.0969   89.0192 H   0  0  0  0  0  0  0  0  0  0  0  0
  121.2606  121.9748   88.6788 H   0  0  0  0  0  0  0  0  0  0  0  0
  119.3148  123.0129   87.5154 H   0  0  0  0  0  0  0  0  0  0  0  0
  1  2  1  0
  2  3  1  0
  3  4  1  0
  4  5  2  0
  5  6  1  0
  6  7  2  0
  7  8  1  0
  8  9  2  3
  9 10  1  0
  9 11  1  0
 11 12  2  3
 12 13  1  0
 12 14  1  0
  7 15  1  0
 15 16  2  0
 16  4  1  0
  1 17  1  0
  1 18  1  0
  1 19  1  0
  2 20  1  0
  2 21  1  0
  5 22  1  0
  6 23  1  0
 10 24  1  0
 10 25  1  0
 13 26  1  0
 13 27  1  0
 14 28  1  0
 14 29  1  0
 15 30  1  0
 16 31  1  0
M  END
>  <loss>  (13) 
0.6502825617790222

>  <score>  (13) 
3.2136714458465576

$$$$
CHEQLSSMGDBGBI-UHFFFAOYSA-N
     RDKit          3D

 31 31  0  0  0  0  0  0  0  0999 V2000
  118.8827  123.7968   82.8014 C   0  0  0  0  0  0  0  0  0  0  0  0
  118.9351  123.4066   84.2677 C   0  0  0  0  0  0  0  0  0  0  0  0
  120.0127  124.1178   84.8734 O   0  0  0  0  0  0  0  0  0  0  0  0
  120.8741  123.3940   85.6513 C   0  0  0  0  0  0  0  0  0  0  0  0
  120.8047  123.2477   87.0369 C   0  0  0  0  0  0  0  0  0  0  0  0
  121.7576  122.4726   87.7087 C   0  0  0  0  0  0  0  0  0  0  0  0
  122.7938  121.8495   87.0097 C   0  0  0  0  0  0  0  0  0  0  0  0
  123.7268  121.0453   87.6799 N   0  0  0  0  0  0  0  0  0  0  0  0
  124.9827  121.3735   87.6464 C   0  0  0  0  0  0  0  0  0  0  0  0
  125.8782  120.5586   88.2669 N   0  0  0  0  0  0  0  0  0  0  0  0
  125.4509  122.4606   86.9743 N   0  0  0  0  0  0  0  0  0  0  0  0
  126.6984  122.4744   86.6474 C   0  0  0  0  0  0  0  0  0  0  0  0
  127.2115  123.5622   86.0276 N   0  0  0  0  0  0  0  0  0  0  0  0
  127.6445  121.5333   86.8634 N   0  0  0  0  0  0  0  0  0  0  0  0
  122.8505  121.9852   85.6224 C   0  0  0  0  0  0  0  0  0  0  0  0
  121.8997  122.7566   84.9487 C   0  0  0  0  0  0  0  0  0  0  0  0
  118.7366  124.8837   82.7162 H   0  0  0  0  0  0  0  0  0  0  0  0
  119.8269  123.5143   82.3128 H   0  0  0  0  0  0  0  0  0  0  0  0
  118.0466  123.2750   82.3128 H   0  0  0  0  0  0  0  0  0  0  0  0
  117.9881  123.6736   84.7594 H   0  0  0  0  0  0  0  0  0  0  0  0
  119.0872  122.3219   84.3699 H   0  0  0  0  0  0  0  0  0  0  0  0
  120.0007  123.7417   87.6021 H   0  0  0  0  0  0  0  0  0  0  0  0
  121.6893  122.3530   88.8001 H   0  0  0  0  0  0  0  0  0  0  0  0
  126.8811  120.7932   88.2570 H   0  0  0  0  0  0  0  0  0  0  0  0
  125.5533  119.7070   88.7466 H   0  0  0  0  0  0  0  0  0  0  0  0
  128.2067  123.5825   85.7627 H   0  0  0  0  0  0  0  0  0  0  0  0
  126.6070  124.3700   85.8206 H   0  0  0  0  0  0  0  0  0  0  0  0
  128.6097  121.6895   86.5396 H   0  0  0  0  0  0  0  0  0  0  0  0
  127.4002  120.6600   87.3519 H   0  0  0  0  0  0  0  0  0  0  0  0
  123.6478  121.4822   85.0557 H   0  0  0  0  0  0  0  0  0  0  0  0
  121.9594  122.8630   83.8555 H   0  0  0  0  0  0  0  0  0  0  0  0
  1  2  1  0
  2  3  1  0
  3  4  1  0
  4  5  2  0
  5  6  1  0
  6  7  2  0
  7  8  1  0
  8  9  2  3
  9 10  1  0
  9 11  1  0
 11 12  2  3
 12 13  1  0
 12 14  1  0
  7 15  1  0
 15 16  2  0
 16  4  1  0
  1 17  1  0
  1 18  1  0
  1 19  1  0
  2 20  1  0
  2 21  1  0
  5 22  1  0
  6 23  1  0
 10 24  1  0
 10 25  1  0
 13 26  1  0
 13 27  1  0
 14 28  1  0
 14 29  1  0
 15 30  1  0
 16 31  1  0
M  END
>  <loss>  (14) 
0.6415974497795105

>  <score>  (14) 
3.1058523654937744

$$$$
CHEQLSSMGDBGBI-UHFFFAOYSA-N
     RDKit          3D

 31 31  0  0  0  0  0  0  0  0999 V2000
  118.0394  123.1365   83.8830 C   0  0  0  0  0  0  0  0  0  0  0  0
  119.4951  123.4659   83.6044 C   0  0  0  0  0  0  0  0  0  0  0  0
  120.0129  124.1612   84.7368 O   0  0  0  0  0  0  0  0  0  0  0  0
  120.8356  123.4581   85.5734 C   0  0  0  0  0  0  0  0  0  0  0  0
  120.7153  123.3691   86.9604 C   0  0  0  0  0  0  0  0  0  0  0  0
  121.6324  122.6094   87.6964 C   0  0  0  0  0  0  0  0  0  0  0  0
  122.6833  121.9447   87.0605 C   0  0  0  0  0  0  0  0  0  0  0  0
  123.5802  121.1561   87.7953 N   0  0  0  0  0  0  0  0  0  0  0  0
  124.8477  121.4351   87.7525 C   0  0  0  0  0  0  0  0  0  0  0  0
  125.7072  120.6336   88.4382 N   0  0  0  0  0  0  0  0  0  0  0  0
  125.3615  122.4543   87.0112 N   0  0  0  0  0  0  0  0  0  0  0  0
  126.6212  122.4225   86.7361 C   0  0  0  0  0  0  0  0  0  0  0  0
  127.1778  123.4463   86.0485 N   0  0  0  0  0  0  0  0  0  0  0  0
  127.5411  121.4898   87.0696 N   0  0  0  0  0  0  0  0  0  0  0  0
  122.7908  122.0233   85.6718 C   0  0  0  0  0  0  0  0  0  0  0  0
  121.8758  122.7793   84.9341 C   0  0  0  0  0  0  0  0  0  0  0  0
  117.8735  123.0989   84.9698 H   0  0  0  0  0  0  0  0  0  0  0  0
  117.3968  123.9119   83.4406 H   0  0  0  0  0  0  0  0  0  0  0  0
  117.7933  122.1599   83.4406 H   0  0  0  0  0  0  0  0  0  0  0  0
  120.0638  122.5381   83.4436 H   0  0  0  0  0  0  0  0  0  0  0  0
  119.5806  124.0881   82.7013 H   0  0  0  0  0  0  0  0  0  0  0  0
  119.8991  123.8963   87.4762 H   0  0  0  0  0  0  0  0  0  0  0  0
  121.5239  122.5351   88.7885 H   0  0  0  0  0  0  0  0  0  0  0  0
  126.7181  120.8301   88.4228 H   0  0  0  0  0  0  0  0  0  0  0  0
  125.3468  119.8302   88.9728 H   0  0  0  0  0  0  0  0  0  0  0  0
  128.1830  123.4298   85.8242 H   0  0  0  0  0  0  0  0  0  0  0  0
  126.5964  124.2422   85.7494 H   0  0  0  0  0  0  0  0  0  0  0  0
  128.5211  121.6042   86.7738 H   0  0  0  0  0  0  0  0  0  0  0  0
  127.2620  120.6648   87.6194 H   0  0  0  0  0  0  0  0  0  0  0  0
  123.6002  121.4872   85.1546 H   0  0  0  0  0  0  0  0  0  0  0  0
  121.9756  122.8404   83.8403 H   0  0  0  0  0  0  0  0  0  0  0  0
  1  2  1  0
  2  3  1  0
  3  4  1  0
  4  5  2  0
  5  6  1  0
  6  7  2  0
  7  8  1  0
  8  9  2  3
  9 10  1  0
  9 11  1  0
 11 12  2  3
 12 13  1  0
 12 14  1  0
  7 15  1  0
 15 16  2  0
 16  4  1  0
  1 17  1  0
  1 18  1  0
  1 19  1  0
  2 20  1  0
  2 21  1  0
  5 22  1  0
  6 23  1  0
 10 24  1  0
 10 25  1  0
 13 26  1  0
 13 27  1  0
 14 28  1  0
 14 29  1  0
 15 30  1  0
 16 31  1  0
M  END
>  <loss>  (15) 
0.6502244472503662

>  <score>  (15) 
3.0864720344543457

$$$$
CHEQLSSMGDBGBI-UHFFFAOYSA-N
     RDKit          3D

 31 31  0  0  0  0  0  0  0  0999 V2000
  118.1568  122.7822   83.3858 C   0  0  0  0  0  0  0  0  0  0  0  0
  119.3655  123.7013   83.4139 C   0  0  0  0  0  0  0  0  0  0  0  0
  119.6208  124.1640   84.7389 O   0  0  0  0  0  0  0  0  0  0  0  0
  120.5383  123.5038   85.5057 C   0  0  0  0  0  0  0  0  0  0  0  0
  120.3419  123.0147   86.7965 C   0  0  0  0  0  0  0  0  0  0  0  0
  121.3824  122.3576   87.4648 C   0  0  0  0  0  0  0  0  0  0  0  0
  122.6226  122.1757   86.8513 C   0  0  0  0  0  0  0  0  0  0  0  0
  123.6532  121.5335   87.5483 N   0  0  0  0  0  0  0  0  0  0  0  0
  124.8835  121.6889   87.1640 C   0  0  0  0  0  0  0  0  0  0  0  0
  125.3071  122.3975   86.0819 N   0  0  0  0  0  0  0  0  0  0  0  0
  125.8734  121.0452   87.8507 N   0  0  0  0  0  0  0  0  0  0  0  0
  125.9457  121.1329   89.1359 C   0  0  0  0  0  0  0  0  0  0  0  0
  126.9547  120.5120   89.7902 N   0  0  0  0  0  0  0  0  0  0  0  0
  125.1514  121.8247   89.9870 N   0  0  0  0  0  0  0  0  0  0  0  0
  122.8248  122.6854   85.5684 C   0  0  0  0  0  0  0  0  0  0  0  0
  121.7870  123.3395   84.8996 C   0  0  0  0  0  0  0  0  0  0  0  0
  117.8497  122.5486   84.4159 H   0  0  0  0  0  0  0  0  0  0  0  0
  117.3290  123.2810   82.8606 H   0  0  0  0  0  0  0  0  0  0  0  0
  118.4163  121.8511   82.8606 H   0  0  0  0  0  0  0  0  0  0  0  0
  120.2452  123.1511   83.0485 H   0  0  0  0  0  0  0  0  0  0  0  0
  119.1622  124.5701   82.7707 H   0  0  0  0  0  0  0  0  0  0  0  0
  119.3679  123.1451   87.2908 H   0  0  0  0  0  0  0  0  0  0  0  0
  121.2203  121.9805   88.4853 H   0  0  0  0  0  0  0  0  0  0  0  0
  126.3126  122.4564   85.8665 H   0  0  0  0  0  0  0  0  0  0  0  0
  124.6223  122.8748   85.4785 H   0  0  0  0  0  0  0  0  0  0  0  0
  127.0201  120.5767   90.8161 H   0  0  0  0  0  0  0  0  0  0  0  0
  127.6572  119.9747   89.2623 H   0  0  0  0  0  0  0  0  0  0  0  0
  125.3356  121.7981   91.0000 H   0  0  0  0  0  0  0  0  0  0  0  0
  124.3630  122.3775   89.6212 H   0  0  0  0  0  0  0  0  0  0  0  0
  123.8047  122.5719   85.0817 H   0  0  0  0  0  0  0  0  0  0  0  0
  121.9546  123.7296   83.8848 H   0  0  0  0  0  0  0  0  0  0  0  0
  1  2  1  0
  2  3  1  0
  3  4  1  0
  4  5  2  0
  5  6  1  0
  6  7  2  0
  7  8  1  0
  8  9  2  3
  9 10  1  0
  9 11  1  0
 11 12  2  3
 12 13  1  0
 12 14  1  0
  7 15  1  0
 15 16  2  0
 16  4  1  0
  1 17  1  0
  1 18  1  0
  1 19  1  0
  2 20  1  0
  2 21  1  0
  5 22  1  0
  6 23  1  0
 10 24  1  0
 10 25  1  0
 13 26  1  0
 13 27  1  0
 14 28  1  0
 14 29  1  0
 15 30  1  0
 16 31  1  0
M  END
>  <loss>  (16) 
0.6430961489677429

>  <score>  (16) 
3.024531364440918

$$$$
CHEQLSSMGDBGBI-UHFFFAOYSA-N
     RDKit          3D

 31 31  0  0  0  0  0  0  0  0999 V2000
  118.1088  122.8027   83.6091 C   0  0  0  0  0  0  0  0  0  0  0  0
  119.3986  123.5925   83.4694 C   0  0  0  0  0  0  0  0  0  0  0  0
  119.7747  124.1755   84.7159 O   0  0  0  0  0  0  0  0  0  0  0  0
  120.6309  123.4942   85.5336 C   0  0  0  0  0  0  0  0  0  0  0  0
  121.9122  123.3123   85.0051 C   0  0  0  0  0  0  0  0  0  0  0  0
  122.8942  122.6337   85.7310 C   0  0  0  0  0  0  0  0  0  0  0  0
  122.6037  122.1188   86.9933 C   0  0  0  0  0  0  0  0  0  0  0  0
  123.5968  121.4528   87.7213 N   0  0  0  0  0  0  0  0  0  0  0  0
  124.8375  121.5497   87.3511 C   0  0  0  0  0  0  0  0  0  0  0  0
  125.3091  122.2957   86.3137 N   0  0  0  0  0  0  0  0  0  0  0  0
  125.8047  120.9048   88.0699 N   0  0  0  0  0  0  0  0  0  0  0  0
  125.8860  121.0307   89.3484 C   0  0  0  0  0  0  0  0  0  0  0  0
  126.8494  120.3793   90.0421 N   0  0  0  0  0  0  0  0  0  0  0  0
  125.1115  121.7391   90.2038 N   0  0  0  0  0  0  0  0  0  0  0  0
  121.3308  122.3195   87.5319 C   0  0  0  0  0  0  0  0  0  0  0  0
  120.3458  122.9996   86.8056 C   0  0  0  0  0  0  0  0  0  0  0  0
  117.8787  122.6619   84.6755 H   0  0  0  0  0  0  0  0  0  0  0  0
  117.2877  123.3531   83.1264 H   0  0  0  0  0  0  0  0  0  0  0  0
  118.2258  121.8212   83.1264 H   0  0  0  0  0  0  0  0  0  0  0  0
  120.1991  122.9184   83.1308 H   0  0  0  0  0  0  0  0  0  0  0  0
  119.2404  124.3983   82.7375 H   0  0  0  0  0  0  0  0  0  0  0  0
  122.1498  123.7079   84.0065 H   0  0  0  0  0  0  0  0  0  0  0  0
  123.9002  122.5052   85.3049 H   0  0  0  0  0  0  0  0  0  0  0  0
  126.3170  122.3041   86.1018 H   0  0  0  0  0  0  0  0  0  0  0  0
  124.6578  122.8515   85.7411 H   0  0  0  0  0  0  0  0  0  0  0  0
  126.9082  120.4849   91.0650 H   0  0  0  0  0  0  0  0  0  0  0  0
  127.5235  119.7783   89.5468 H   0  0  0  0  0  0  0  0  0  0  0  0
  125.3181  121.7311   91.2128 H   0  0  0  0  0  0  0  0  0  0  0  0
  124.3156  122.2860   89.8454 H   0  0  0  0  0  0  0  0  0  0  0  0
  121.0997  121.9391   88.5378 H   0  0  0  0  0  0  0  0  0  0  0  0
  119.3452  123.1439   87.2393 H   0  0  0  0  0  0  0  0  0  0  0  0
  1  2  1  0
  2  3  1  0
  3  4  1  0
  4  5  2  0
  5  6  1  0
  6  7  2  0
  7  8  1  0
  8  9  2  3
  9 10  1  0
  9 11  1  0
 11 12  2  3
 12 13  1  0
 12 14  1  0
  7 15  1  0
 15 16  2  0
 16  4  1  0
  1 17  1  0
  1 18  1  0
  1 19  1  0
  2 20  1  0
  2 21  1  0
  5 22  1  0
  6 23  1  0
 10 24  1  0
 10 25  1  0
 13 26  1  0
 13 27  1  0
 14 28  1  0
 14 29  1  0
 15 30  1  0
 16 31  1  0
M  END
>  <loss>  (17) 
0.6612154245376587

>  <score>  (17) 
3.0727174282073975

$$$$
CHEQLSSMGDBGBI-UHFFFAOYSA-N
     RDKit          3D

 31 31  0  0  0  0  0  0  0  0999 V2000
  118.0841  122.7657   83.3664 C   0  0  0  0  0  0  0  0  0  0  0  0
  119.3543  123.5971   83.4146 C   0  0  0  0  0  0  0  0  0  0  0  0
  119.5817  124.1014   84.7296 O   0  0  0  0  0  0  0  0  0  0  0  0
  120.5149  123.4925   85.5197 C   0  0  0  0  0  0  0  0  0  0  0  0
  121.7760  123.3649   84.9301 C   0  0  0  0  0  0  0  0  0  0  0  0
  122.8299  122.7628   85.6220 C   0  0  0  0  0  0  0  0  0  0  0  0
  122.6329  122.2709   86.9112 C   0  0  0  0  0  0  0  0  0  0  0  0
  123.6973  121.6821   87.6042 N   0  0  0  0  0  0  0  0  0  0  0  0
  124.8895  121.7075   87.0906 C   0  0  0  0  0  0  0  0  0  0  0  0
  125.2467  122.3084   85.9217 N   0  0  0  0  0  0  0  0  0  0  0  0
  125.9272  121.1391   87.7747 N   0  0  0  0  0  0  0  0  0  0  0  0
  125.8512  120.9096   89.0391 C   0  0  0  0  0  0  0  0  0  0  0  0
  126.8895  120.3413   89.6969 N   0  0  0  0  0  0  0  0  0  0  0  0
  124.8339  121.1333   89.9042 N   0  0  0  0  0  0  0  0  0  0  0  0
  121.3797  122.4180   87.5098 C   0  0  0  0  0  0  0  0  0  0  0  0
  120.3226  123.0213   86.8178 C   0  0  0  0  0  0  0  0  0  0  0  0
  117.7500  122.5469   84.3914 H   0  0  0  0  0  0  0  0  0  0  0  0
  117.2994  123.3254   82.8365 H   0  0  0  0  0  0  0  0  0  0  0  0
  118.2832  121.8225   82.8365 H   0  0  0  0  0  0  0  0  0  0  0  0
  120.2073  122.9696   83.1168 H   0  0  0  0  0  0  0  0  0  0  0  0
  119.2446  124.4475   82.7256 H   0  0  0  0  0  0  0  0  0  0  0  0
  121.9403  123.7428   83.9102 H   0  0  0  0  0  0  0  0  0  0  0  0
  123.8187  122.6766   85.1476 H   0  0  0  0  0  0  0  0  0  0  0  0
  126.2247  122.2705   85.6010 H   0  0  0  0  0  0  0  0  0  0  0  0
  124.5387  122.8006   85.3583 H   0  0  0  0  0  0  0  0  0  0  0  0
  126.8213  120.1608   90.7087 H   0  0  0  0  0  0  0  0  0  0  0  0
  127.7474  120.0897   89.1855 H   0  0  0  0  0  0  0  0  0  0  0  0
  124.9400  120.8874   90.8987 H   0  0  0  0  0  0  0  0  0  0  0  0
  123.9538  121.5495   89.5677 H   0  0  0  0  0  0  0  0  0  0  0  0
  121.2213  122.0558   88.5363 H   0  0  0  0  0  0  0  0  0  0  0  0
  119.3388  123.1238   87.2990 H   0  0  0  0  0  0  0  0  0  0  0  0
  1  2  1  0
  2  3  1  0
  3  4  1  0
  4  5  2  0
  5  6  1  0
  6  7  2  0
  7  8  1  0
  8  9  2  3
  9 10  1  0
  9 11  1  0
 11 12  2  3
 12 13  1  0
 12 14  1  0
  7 15  1  0
 15 16  2  0
 16  4  1  0
  1 17  1  0
  1 18  1  0
  1 19  1  0
  2 20  1  0
  2 21  1  0
  5 22  1  0
  6 23  1  0
 10 24  1  0
 10 25  1  0
 13 26  1  0
 13 27  1  0
 14 28  1  0
 14 29  1  0
 15 30  1  0
 16 31  1  0
M  END
>  <loss>  (18) 
0.6479439735412598

>  <score>  (18) 
2.9996979236602783

$$$$
CHEQLSSMGDBGBI-UHFFFAOYSA-N
     RDKit          3D

 31 31  0  0  0  0  0  0  0  0999 V2000
  119.2471  124.5560   82.6611 C   0  0  0  0  0  0  0  0  0  0  0  0
  119.2001  123.2448   83.4250 C   0  0  0  0  0  0  0  0  0  0  0  0
  119.1571  123.5488   84.8182 O   0  0  0  0  0  0  0  0  0  0  0  0
  120.2278  123.1585   85.5735 C   0  0  0  0  0  0  0  0  0  0  0  0
  121.4712  123.3519   84.9659 C   0  0  0  0  0  0  0  0  0  0  0  0
  122.6492  122.9942   85.6263 C   0  0  0  0  0  0  0  0  0  0  0  0
  122.5960  122.4260   86.8988 C   0  0  0  0  0  0  0  0  0  0  0  0
  123.7804  122.0816   87.5611 N   0  0  0  0  0  0  0  0  0  0  0  0
  124.8246  121.7373   86.8702 C   0  0  0  0  0  0  0  0  0  0  0  0
  124.9027  121.6907   85.5112 N   0  0  0  0  0  0  0  0  0  0  0  0
  125.9790  121.3837   87.5121 N   0  0  0  0  0  0  0  0  0  0  0  0
  125.9876  120.9704   88.7309 C   0  0  0  0  0  0  0  0  0  0  0  0
  124.9689  120.8308   89.6112 N   0  0  0  0  0  0  0  0  0  0  0  0
  127.1509  120.6148   89.3255 N   0  0  0  0  0  0  0  0  0  0  0  0
  121.3544  122.2482   87.5130 C   0  0  0  0  0  0  0  0  0  0  0  0
  120.1731  122.6064   86.8534 C   0  0  0  0  0  0  0  0  0  0  0  0
  119.2771  125.3941   83.3729 H   0  0  0  0  0  0  0  0  0  0  0  0
  120.1467  124.5797   82.0285 H   0  0  0  0  0  0  0  0  0  0  0  0
  118.3515  124.6441   82.0285 H   0  0  0  0  0  0  0  0  0  0  0  0
  118.3021  122.6777   83.1386 H   0  0  0  0  0  0  0  0  0  0  0  0
  120.0860  122.6352   83.1936 H   0  0  0  0  0  0  0  0  0  0  0  0
  121.5230  123.7899   83.9582 H   0  0  0  0  0  0  0  0  0  0  0  0
  123.6221  123.1614   85.1410 H   0  0  0  0  0  0  0  0  0  0  0  0
  125.7805  121.4033   85.0554 H   0  0  0  0  0  0  0  0  0  0  0  0
  124.0840  121.9430   84.9394 H   0  0  0  0  0  0  0  0  0  0  0  0
  125.1542  120.4807   90.5620 H   0  0  0  0  0  0  0  0  0  0  0  0
  124.0084  121.0747   89.3303 H   0  0  0  0  0  0  0  0  0  0  0  0
  127.1508  120.2849   90.3012 H   0  0  0  0  0  0  0  0  0  0  0  0
  128.0360  120.6742   88.8020 H   0  0  0  0  0  0  0  0  0  0  0  0
  121.3044  121.8222   88.5260 H   0  0  0  0  0  0  0  0  0  0  0  0
  119.2009  122.4524   87.3446 H   0  0  0  0  0  0  0  0  0  0  0  0
  1  2  1  0
  2  3  1  0
  3  4  1  0
  4  5  2  0
  5  6  1  0
  6  7  2  0
  7  8  1  0
  8  9  2  3
  9 10  1  0
  9 11  1  0
 11 12  2  3
 12 13  1  0
 12 14  1  0
  7 15  1  0
 15 16  2  0
 16  4  1  0
  1 17  1  0
  1 18  1  0
  1 19  1  0
  2 20  1  0
  2 21  1  0
  5 22  1  0
  6 23  1  0
 10 24  1  0
 10 25  1  0
 13 26  1  0
 13 27  1  0
 14 28  1  0
 14 29  1  0
 15 30  1  0
 16 31  1  0
M  END
>  <loss>  (19) 
0.6632068753242493

>  <score>  (19) 
3.0589499473571777

$$$$
CHEQLSSMGDBGBI-UHFFFAOYSA-N
     RDKit          3D

 31 31  0  0  0  0  0  0  0  0999 V2000
  118.0380  122.8352   83.6016 C   0  0  0  0  0  0  0  0  0  0  0  0
  119.3464  123.5930   83.4585 C   0  0  0  0  0  0  0  0  0  0  0  0
  119.7377  124.1700   84.7030 O   0  0  0  0  0  0  0  0  0  0  0  0
  120.6129  123.4907   85.5018 C   0  0  0  0  0  0  0  0  0  0  0  0
  120.3488  122.9741   86.7697 C   0  0  0  0  0  0  0  0  0  0  0  0
  121.3521  122.2998   87.4766 C   0  0  0  0  0  0  0  0  0  0  0  0
  122.6222  122.1279   86.9245 C   0  0  0  0  0  0  0  0  0  0  0  0
  123.6141  121.4678   87.6600 N   0  0  0  0  0  0  0  0  0  0  0  0
  124.8574  121.5725   87.3011 C   0  0  0  0  0  0  0  0  0  0  0  0
  125.3296  122.2407   86.2135 N   0  0  0  0  0  0  0  0  0  0  0  0
  125.8089  120.9121   88.0253 N   0  0  0  0  0  0  0  0  0  0  0  0
  125.8816  121.0607   89.3050 C   0  0  0  0  0  0  0  0  0  0  0  0
  126.8534  120.4203   89.9957 N   0  0  0  0  0  0  0  0  0  0  0  0
  125.1230  121.8364   90.1153 N   0  0  0  0  0  0  0  0  0  0  0  0
  122.8917  122.6649   85.6653 C   0  0  0  0  0  0  0  0  0  0  0  0
  121.8912  123.3363   84.9580 C   0  0  0  0  0  0  0  0  0  0  0  0
  117.8067  122.7012   84.6686 H   0  0  0  0  0  0  0  0  0  0  0  0
  117.2297  123.4049   83.1199 H   0  0  0  0  0  0  0  0  0  0  0  0
  118.1301  121.8505   83.1199 H   0  0  0  0  0  0  0  0  0  0  0  0
  120.1300  122.8988   83.1209 H   0  0  0  0  0  0  0  0  0  0  0  0
  119.2071  124.4004   82.7245 H   0  0  0  0  0  0  0  0  0  0  0  0
  119.3507  123.0964   87.2154 H   0  0  0  0  0  0  0  0  0  0  0  0
  121.1365  121.9009   88.4788 H   0  0  0  0  0  0  0  0  0  0  0  0
  126.3411  122.2606   86.0204 H   0  0  0  0  0  0  0  0  0  0  0  0
  124.6754  122.7265   85.5835 H   0  0  0  0  0  0  0  0  0  0  0  0
  126.9188  120.5333   91.0174 H   0  0  0  0  0  0  0  0  0  0  0  0
  127.5276  119.8200   89.4998 H   0  0  0  0  0  0  0  0  0  0  0  0
  125.3022  121.8513   91.1294 H   0  0  0  0  0  0  0  0  0  0  0  0
  124.3669  122.4116   89.7174 H   0  0  0  0  0  0  0  0  0  0  0  0
  123.8955  122.5593   85.2279 H   0  0  0  0  0  0  0  0  0  0  0  0
  122.1120  123.7479   83.9621 H   0  0  0  0  0  0  0  0  0  0  0  0
  1  2  1  0
  2  3  1  0
  3  4  1  0
  4  5  2  0
  5  6  1  0
  6  7  2  0
  7  8  1  0
  8  9  2  3
  9 10  1  0
  9 11  1  0
 11 12  2  3
 12 13  1  0
 12 14  1  0
  7 15  1  0
 15 16  2  0
 16  4  1  0
  1 17  1  0
  1 18  1  0
  1 19  1  0
  2 20  1  0
  2 21  1  0
  5 22  1  0
  6 23  1  0
 10 24  1  0
 10 25  1  0
 13 26  1  0
 13 27  1  0
 14 28  1  0
 14 29  1  0
 15 30  1  0
 16 31  1  0
M  END
>  <loss>  (20) 
0.6550340056419373

>  <score>  (20) 
2.9512386322021484

$$$$
CHEQLSSMGDBGBI-UHFFFAOYSA-N
     RDKit          3D

 31 31  0  0  0  0  0  0  0  0999 V2000
  118.1633  122.9983   83.0121 C   0  0  0  0  0  0  0  0  0  0  0  0
  119.4294  123.7533   83.3778 C   0  0  0  0  0  0  0  0  0  0  0  0
  119.4689  124.0316   84.7764 O   0  0  0  0  0  0  0  0  0  0  0  0
  120.4310  123.4371   85.5425 C   0  0  0  0  0  0  0  0  0  0  0  0
  121.7106  123.4563   84.9801 C   0  0  0  0  0  0  0  0  0  0  0  0
  122.7945  122.8858   85.6522 C   0  0  0  0  0  0  0  0  0  0  0  0
  122.6101  122.2792   86.8935 C   0  0  0  0  0  0  0  0  0  0  0  0
  123.7033  121.7227   87.5680 N   0  0  0  0  0  0  0  0  0  0  0  0
  124.8402  121.5975   86.9536 C   0  0  0  0  0  0  0  0  0  0  0  0
  125.1147  122.0056   85.6835 N   0  0  0  0  0  0  0  0  0  0  0  0
  125.9072  121.0617   87.6188 N   0  0  0  0  0  0  0  0  0  0  0  0
  125.9524  121.0382   88.9051 C   0  0  0  0  0  0  0  0  0  0  0  0
  127.0172  120.4985   89.5444 N   0  0  0  0  0  0  0  0  0  0  0  0
  125.0496  121.4736   89.8154 N   0  0  0  0  0  0  0  0  0  0  0  0
  121.3365  122.2794   87.4668 C   0  0  0  0  0  0  0  0  0  0  0  0
  120.2494  122.8508   86.7944 C   0  0  0  0  0  0  0  0  0  0  0  0
  117.6432  122.6882   83.9304 H   0  0  0  0  0  0  0  0  0  0  0  0
  117.5049  123.6514   82.4206 H   0  0  0  0  0  0  0  0  0  0  0  0
  118.4249  122.1086   82.4206 H   0  0  0  0  0  0  0  0  0  0  0  0
  120.3037  123.1432   83.1069 H   0  0  0  0  0  0  0  0  0  0  0  0
  119.4418  124.7065   82.8288 H   0  0  0  0  0  0  0  0  0  0  0  0
  121.8658  123.9256   83.9974 H   0  0  0  0  0  0  0  0  0  0  0  0
  123.7969  122.9155   85.2002 H   0  0  0  0  0  0  0  0  0  0  0  0
  126.0540  121.8587   85.2871 H   0  0  0  0  0  0  0  0  0  0  0  0
  124.3831  122.4609   85.1194 H   0  0  0  0  0  0  0  0  0  0  0  0
  127.0463  120.4832   90.5739 H   0  0  0  0  0  0  0  0  0  0  0  0
  127.7979  120.1032   89.0012 H   0  0  0  0  0  0  0  0  0  0  0  0
  125.2457  121.3775   90.8220 H   0  0  0  0  0  0  0  0  0  0  0  0
  124.1666  121.9010   89.5013 H   0  0  0  0  0  0  0  0  0  0  0  0
  121.1859  121.8255   88.4574 H   0  0  0  0  0  0  0  0  0  0  0  0
  119.2505  122.8371   87.2547 H   0  0  0  0  0  0  0  0  0  0  0  0
  1  2  1  0
  2  3  1  0
  3  4  1  0
  4  5  2  0
  5  6  1  0
  6  7  2  0
  7  8  1  0
  8  9  2  3
  9 10  1  0
  9 11  1  0
 11 12  2  3
 12 13  1  0
 12 14  1  0
  7 15  1  0
 15 16  2  0
 16  4  1  0
  1 17  1  0
  1 18  1  0
  1 19  1  0
  2 20  1  0
  2 21  1  0
  5 22  1  0
  6 23  1  0
 10 24  1  0
 10 25  1  0
 13 26  1  0
 13 27  1  0
 14 28  1  0
 14 29  1  0
 15 30  1  0
 16 31  1  0
M  END
>  <loss>  (21) 
0.6682085394859314

>  <score>  (21) 
3.0101816654205322

$$$$
CHEQLSSMGDBGBI-UHFFFAOYSA-N
     RDKit          3D

 31 31  0  0  0  0  0  0  0  0999 V2000
  118.0099  122.8540   83.6755 C   0  0  0  0  0  0  0  0  0  0  0  0
  119.3252  123.5827   83.4625 C   0  0  0  0  0  0  0  0  0  0  0  0
  119.7587  124.2109   84.6676 O   0  0  0  0  0  0  0  0  0  0  0  0
  120.6120  123.5383   85.4952 C   0  0  0  0  0  0  0  0  0  0  0  0
  120.3358  123.0943   86.7877 C   0  0  0  0  0  0  0  0  0  0  0  0
  121.3167  122.4173   87.5228 C   0  0  0  0  0  0  0  0  0  0  0  0
  122.5763  122.1704   86.9749 C   0  0  0  0  0  0  0  0  0  0  0  0
  123.5466  121.5094   87.7378 N   0  0  0  0  0  0  0  0  0  0  0  0
  124.7764  121.4746   87.3234 C   0  0  0  0  0  0  0  0  0  0  0  0
  125.2487  121.9877   86.1546 N   0  0  0  0  0  0  0  0  0  0  0  0
  125.7059  120.8155   88.0767 N   0  0  0  0  0  0  0  0  0  0  0  0
  125.8778  121.1163   89.3196 C   0  0  0  0  0  0  0  0  0  0  0  0
  126.8272  120.4706   90.0361 N   0  0  0  0  0  0  0  0  0  0  0  0
  125.2533  122.0631   90.0595 N   0  0  0  0  0  0  0  0  0  0  0  0
  122.8587  122.6349   85.6900 C   0  0  0  0  0  0  0  0  0  0  0  0
  121.8804  123.3089   84.9546 C   0  0  0  0  0  0  0  0  0  0  0  0
  117.8196  122.7486   84.7537 H   0  0  0  0  0  0  0  0  0  0  0  0
  117.1934  123.4285   83.2135 H   0  0  0  0  0  0  0  0  0  0  0  0
  118.0639  121.8572   83.2135 H   0  0  0  0  0  0  0  0  0  0  0  0
  120.0888  122.8606   83.1377 H   0  0  0  0  0  0  0  0  0  0  0  0
  119.1785  124.3570   82.6950 H   0  0  0  0  0  0  0  0  0  0  0  0
  119.3455  123.2761   87.2308 H   0  0  0  0  0  0  0  0  0  0  0  0
  121.0918  122.0761   88.5441 H   0  0  0  0  0  0  0  0  0  0  0  0
  126.2488  121.9047   85.9226 H   0  0  0  0  0  0  0  0  0  0  0  0
  124.6060  122.4590   85.5021 H   0  0  0  0  0  0  0  0  0  0  0  0
  126.9712  120.7044   91.0288 H   0  0  0  0  0  0  0  0  0  0  0  0
  127.4058  119.7454   89.5887 H   0  0  0  0  0  0  0  0  0  0  0  0
  125.5003  122.1873   91.0517 H   0  0  0  0  0  0  0  0  0  0  0  0
  124.5313  122.6591   89.6300 H   0  0  0  0  0  0  0  0  0  0  0  0
  123.8552  122.4700   85.2544 H   0  0  0  0  0  0  0  0  0  0  0  0
  122.1110  123.6630   83.9390 H   0  0  0  0  0  0  0  0  0  0  0  0
  1  2  1  0
  2  3  1  0
  3  4  1  0
  4  5  2  0
  5  6  1  0
  6  7  2  0
  7  8  1  0
  8  9  2  3
  9 10  1  0
  9 11  1  0
 11 12  2  3
 12 13  1  0
 12 14  1  0
  7 15  1  0
 15 16  2  0
 16  4  1  0
  1 17  1  0
  1 18  1  0
  1 19  1  0
  2 20  1  0
  2 21  1  0
  5 22  1  0
  6 23  1  0
 10 24  1  0
 10 25  1  0
 13 26  1  0
 13 27  1  0
 14 28  1  0
 14 29  1  0
 15 30  1  0
 16 31  1  0
M  END
>  <loss>  (22) 
0.6700618267059326

>  <score>  (22) 
2.9648966789245605

$$$$
CHEQLSSMGDBGBI-UHFFFAOYSA-N
     RDKit          3D

 31 31  0  0  0  0  0  0  0  0999 V2000
  119.0949  124.4881   90.3480 C   0  0  0  0  0  0  0  0  0  0  0  0
  118.9859  123.1261   89.6861 C   0  0  0  0  0  0  0  0  0  0  0  0
  120.2028  122.4217   89.9268 O   0  0  0  0  0  0  0  0  0  0  0  0
  121.0487  122.2623   88.8644 C   0  0  0  0  0  0  0  0  0  0  0  0
  120.9525  122.9095   87.6329 C   0  0  0  0  0  0  0  0  0  0  0  0
  121.8955  122.6525   86.6304 C   0  0  0  0  0  0  0  0  0  0  0  0
  122.9516  121.7633   86.8496 C   0  0  0  0  0  0  0  0  0  0  0  0
  123.8930  121.4713   85.8518 N   0  0  0  0  0  0  0  0  0  0  0  0
  125.1477  121.7670   86.0205 C   0  0  0  0  0  0  0  0  0  0  0  0
  126.0159  121.5199   85.0080 N   0  0  0  0  0  0  0  0  0  0  0  0
  125.6351  122.3598   87.1444 N   0  0  0  0  0  0  0  0  0  0  0  0
  126.8333  122.8363   87.1051 C   0  0  0  0  0  0  0  0  0  0  0  0
  127.7051  122.8695   86.0707 N   0  0  0  0  0  0  0  0  0  0  0  0
  127.3426  123.4386   88.2053 N   0  0  0  0  0  0  0  0  0  0  0  0
  123.0280  121.1005   88.0749 C   0  0  0  0  0  0  0  0  0  0  0  0
  122.0890  121.3549   89.0781 C   0  0  0  0  0  0  0  0  0  0  0  0
  119.0851  124.3664   91.4412 H   0  0  0  0  0  0  0  0  0  0  0  0
  120.0345  124.9708   90.0412 H   0  0  0  0  0  0  0  0  0  0  0  0
  118.2439  125.1140   90.0412 H   0  0  0  0  0  0  0  0  0  0  0  0
  118.1404  122.5687   90.1156 H   0  0  0  0  0  0  0  0  0  0  0  0
  118.8163  123.2385   88.6051 H   0  0  0  0  0  0  0  0  0  0  0  0
  120.1352  123.6224   87.4491 H   0  0  0  0  0  0  0  0  0  0  0  0
  121.8041  123.1571   85.6572 H   0  0  0  0  0  0  0  0  0  0  0  0
  127.0146  121.7460   85.1193 H   0  0  0  0  0  0  0  0  0  0  0  0
  125.6765  121.1061   84.1280 H   0  0  0  0  0  0  0  0  0  0  0  0
  128.6374  123.2889   86.1962 H   0  0  0  0  0  0  0  0  0  0  0  0
  127.4363  122.4754   85.1578 H   0  0  0  0  0  0  0  0  0  0  0  0
  128.2980  123.8229   88.1863 H   0  0  0  0  0  0  0  0  0  0  0  0
  126.7747  123.5125   89.0614 H   0  0  0  0  0  0  0  0  0  0  0  0
  123.8332  120.3724   88.2526 H   0  0  0  0  0  0  0  0  0  0  0  0
  122.1698  120.8360   90.0447 H   0  0  0  0  0  0  0  0  0  0  0  0
  1  2  1  0
  2  3  1  0
  3  4  1  0
  4  5  2  0
  5  6  1  0
  6  7  2  0
  7  8  1  0
  8  9  2  3
  9 10  1  0
  9 11  1  0
 11 12  2  3
 12 13  1  0
 12 14  1  0
  7 15  1  0
 15 16  2  0
 16  4  1  0
  1 17  1  0
  1 18  1  0
  1 19  1  0
  2 20  1  0
  2 21  1  0
  5 22  1  0
  6 23  1  0
 10 24  1  0
 10 25  1  0
 13 26  1  0
 13 27  1  0
 14 28  1  0
 14 29  1  0
 15 30  1  0
 16 31  1  0
M  END
>  <loss>  (23) 
0.7600898146629333

>  <score>  (23) 
3.2837629318237305

$$$$
CHEQLSSMGDBGBI-UHFFFAOYSA-N
     RDKit          3D

 31 31  0  0  0  0  0  0  0  0999 V2000
  119.1151  124.4112   90.2770 C   0  0  0  0  0  0  0  0  0  0  0  0
  118.9965  123.0079   89.7100 C   0  0  0  0  0  0  0  0  0  0  0  0
  120.2441  122.3458   89.9104 O   0  0  0  0  0  0  0  0  0  0  0  0
  121.0613  122.2178   88.8215 C   0  0  0  0  0  0  0  0  0  0  0  0
  120.9102  122.8720   87.5993 C   0  0  0  0  0  0  0  0  0  0  0  0
  121.8288  122.6485   86.5665 C   0  0  0  0  0  0  0  0  0  0  0  0
  122.9145  121.7864   86.7458 C   0  0  0  0  0  0  0  0  0  0  0  0
  123.8326  121.5279   85.7175 N   0  0  0  0  0  0  0  0  0  0  0  0
  125.0977  121.7769   85.8834 C   0  0  0  0  0  0  0  0  0  0  0  0
  125.9437  121.5661   84.8443 N   0  0  0  0  0  0  0  0  0  0  0  0
  125.6184  122.2872   87.0326 N   0  0  0  0  0  0  0  0  0  0  0  0
  126.7936  122.8167   86.9805 C   0  0  0  0  0  0  0  0  0  0  0  0
  127.6095  122.9803   85.9135 N   0  0  0  0  0  0  0  0  0  0  0  0
  127.3345  123.3395   88.1060 N   0  0  0  0  0  0  0  0  0  0  0  0
  123.0459  121.1161   87.9624 C   0  0  0  0  0  0  0  0  0  0  0  0
  122.1314  121.3371   88.9957 C   0  0  0  0  0  0  0  0  0  0  0  0
  119.1111  124.3642   91.3760 H   0  0  0  0  0  0  0  0  0  0  0  0
  120.0550  124.8676   89.9330 H   0  0  0  0  0  0  0  0  0  0  0  0
  118.2651  125.0188   89.9330 H   0  0  0  0  0  0  0  0  0  0  0  0
  118.1959  122.4614   90.2298 H   0  0  0  0  0  0  0  0  0  0  0  0
  118.7524  123.0477   88.6381 H   0  0  0  0  0  0  0  0  0  0  0  0
  120.0690  123.5640   87.4464 H   0  0  0  0  0  0  0  0  0  0  0  0
  121.6944  123.1582   85.6010 H   0  0  0  0  0  0  0  0  0  0  0  0
  126.9502  121.7565   84.9528 H   0  0  0  0  0  0  0  0  0  0  0  0
  125.5797  121.2157   83.9467 H   0  0  0  0  0  0  0  0  0  0  0  0
  128.5300  123.4268   86.0327 H   0  0  0  0  0  0  0  0  0  0  0  0
  127.3101  122.6583   84.9820 H   0  0  0  0  0  0  0  0  0  0  0  0
  128.2720  123.7651   88.0771 H   0  0  0  0  0  0  0  0  0  0  0  0
  126.8086  123.3117   88.9911 H   0  0  0  0  0  0  0  0  0  0  0  0
  123.8753  120.4086   88.1093 H   0  0  0  0  0  0  0  0  0  0  0  0
  122.2554  120.8129   89.9548 H   0  0  0  0  0  0  0  0  0  0  0  0
  1  2  1  0
  2  3  1  0
  3  4  1  0
  4  5  2  0
  5  6  1  0
  6  7  2  0
  7  8  1  0
  8  9  2  3
  9 10  1  0
  9 11  1  0
 11 12  2  3
 12 13  1  0
 12 14  1  0
  7 15  1  0
 15 16  2  0
 16  4  1  0
  1 17  1  0
  1 18  1  0
  1 19  1  0
  2 20  1  0
  2 21  1  0
  5 22  1  0
  6 23  1  0
 10 24  1  0
 10 25  1  0
 13 26  1  0
 13 27  1  0
 14 28  1  0
 14 29  1  0
 15 30  1  0
 16 31  1  0
M  END
>  <loss>  (24) 
0.7745131254196167

>  <score>  (24) 
3.165372610092163

$$$$
CHEQLSSMGDBGBI-UHFFFAOYSA-N
     RDKit          3D

 31 31  0  0  0  0  0  0  0  0999 V2000
  119.0850  124.3256   90.4174 C   0  0  0  0  0  0  0  0  0  0  0  0
  119.0147  122.8571   90.0384 C   0  0  0  0  0  0  0  0  0  0  0  0
  120.3240  122.3061   90.1692 O   0  0  0  0  0  0  0  0  0  0  0  0
  121.0759  122.2145   89.0308 C   0  0  0  0  0  0  0  0  0  0  0  0
  120.9112  122.9754   87.8737 C   0  0  0  0  0  0  0  0  0  0  0  0
  121.7602  122.7777   86.7781 C   0  0  0  0  0  0  0  0  0  0  0  0
  122.7905  121.8343   86.8297 C   0  0  0  0  0  0  0  0  0  0  0  0
  123.6369  121.6015   85.7358 N   0  0  0  0  0  0  0  0  0  0  0  0
  124.9184  121.7940   85.8392 C   0  0  0  0  0  0  0  0  0  0  0  0
  125.6941  121.6120   84.7415 N   0  0  0  0  0  0  0  0  0  0  0  0
  125.5244  122.2184   86.9816 N   0  0  0  0  0  0  0  0  0  0  0  0
  126.7180  122.6989   86.8897 C   0  0  0  0  0  0  0  0  0  0  0  0
  127.4808  122.8848   85.7875 N   0  0  0  0  0  0  0  0  0  0  0  0
  127.3434  123.1362   88.0078 N   0  0  0  0  0  0  0  0  0  0  0  0
  122.9343  121.0593   87.9809 C   0  0  0  0  0  0  0  0  0  0  0  0
  122.0892  121.2542   89.0766 C   0  0  0  0  0  0  0  0  0  0  0  0
  119.0896  124.4216   91.5132 H   0  0  0  0  0  0  0  0  0  0  0  0
  120.0053  124.7666   90.0068 H   0  0  0  0  0  0  0  0  0  0  0  0
  118.2111  124.8525   90.0068 H   0  0  0  0  0  0  0  0  0  0  0  0
  118.3194  122.3312   90.7091 H   0  0  0  0  0  0  0  0  0  0  0  0
  118.6541  122.7455   89.0052 H   0  0  0  0  0  0  0  0  0  0  0  0
  120.1138  123.7314   87.8218 H   0  0  0  0  0  0  0  0  0  0  0  0
  121.6146  123.3726   85.8644 H   0  0  0  0  0  0  0  0  0  0  0  0
  126.7119  121.7588   84.7999 H   0  0  0  0  0  0  0  0  0  0  0  0
  125.2653  121.3269   83.8494 H   0  0  0  0  0  0  0  0  0  0  0  0
  128.4260  123.2841   85.8767 H   0  0  0  0  0  0  0  0  0  0  0  0
  127.1161  122.6269   84.8594 H   0  0  0  0  0  0  0  0  0  0  0  0
  128.2966  123.5219   87.9473 H   0  0  0  0  0  0  0  0  0  0  0  0
  126.8662  123.0831   88.9190 H   0  0  0  0  0  0  0  0  0  0  0  0
  123.7185  120.2892   88.0263 H   0  0  0  0  0  0  0  0  0  0  0  0
  122.2232  120.6460   89.9834 H   0  0  0  0  0  0  0  0  0  0  0  0
  1  2  1  0
  2  3  1  0
  3  4  1  0
  4  5  2  0
  5  6  1  0
  6  7  2  0
  7  8  1  0
  8  9  2  3
  9 10  1  0
  9 11  1  0
 11 12  2  3
 12 13  1  0
 12 14  1  0
  7 15  1  0
 15 16  2  0
 16  4  1  0
  1 17  1  0
  1 18  1  0
  1 19  1  0
  2 20  1  0
  2 21  1  0
  5 22  1  0
  6 23  1  0
 10 24  1  0
 10 25  1  0
 13 26  1  0
 13 27  1  0
 14 28  1  0
 14 29  1  0
 15 30  1  0
 16 31  1  0
M  END
>  <loss>  (25) 
0.7733361721038818

>  <score>  (25) 
3.154355525970459

$$$$
