CMEGSHYBGCJHDV-UHFFFAOYSA-N
     RDKit          3D

 51 51  0  0  0  0  0  0  0  0999 V2000
  121.6177  122.4585   80.3522 C   0  0  0  0  0  0  0  0  0  0  0  0
  120.9977  121.5178   81.3740 C   0  0  0  0  0  0  0  0  0  0  0  0
  120.6388  122.2046   82.6936 C   0  0  0  0  0  0  0  0  0  0  0  0
  121.8603  122.7447   83.4420 C   0  0  0  0  0  0  0  0  0  0  0  0
  121.5213  123.3481   84.7375 N   0  0  0  0  0  0  0  0  0  0  0  0
  121.5590  124.8140   84.8431 C   0  0  0  0  0  0  0  0  0  0  0  0
  120.3393  125.5579   84.2885 C   0  0  0  0  0  0  0  0  0  0  0  0
  120.5418  126.2577   82.9458 C   0  0  0  0  0  0  0  0  0  0  0  0
  121.4196  127.4963   83.0357 C   0  0  0  0  0  0  0  0  0  0  0  0
  121.3359  122.4615   85.8030 C   0  0  0  0  0  0  0  0  0  0  0  0
  120.3011  121.8282   85.9979 O   0  0  0  0  0  0  0  0  0  0  0  0
  122.4401  122.2078   86.7413 C   0  0  0  0  0  0  0  0  0  0  0  0
  123.7122  121.9495   86.2181 C   0  0  0  0  0  0  0  0  0  0  0  0
  124.7757  121.6524   87.0837 C   0  0  0  0  0  0  0  0  0  0  0  0
  126.3723  121.3547   86.3731 S   0  0  0  0  0  6  0  0  0  0  0  0
  127.3543  121.9673   87.2385 O   0  0  0  0  0  0  0  0  0  0  0  0
  126.4529  119.9454   86.0436 O   0  0  0  0  0  0  0  0  0  0  0  0
  126.3144  122.1943   84.8864 N   0  0  0  0  0  0  0  0  0  0  0  0
  126.4841  121.3628   83.6765 C   0  0  0  0  0  0  0  0  0  0  0  0
  127.1905  123.3874   84.8580 C   0  0  0  0  0  0  0  0  0  0  0  0
  124.5599  121.5799   88.4625 C   0  0  0  0  0  0  0  0  0  0  0  0
  125.7913  121.2238   89.6176 Cl  0  0  0  0  0  0  0  0  0  0  0  0
  123.2756  121.8163   88.9724 C   0  0  0  0  0  0  0  0  0  0  0  0
  122.2138  122.1243   88.1170 C   0  0  0  0  0  0  0  0  0  0  0  0
  120.6690  122.4333   88.8218 Cl  0  0  0  0  0  0  0  0  0  0  0  0
  122.1505  123.2671   80.8741 H   0  0  0  0  0  0  0  0  0  0  0  0
  122.3254  121.9002   79.7218 H   0  0  0  0  0  0  0  0  0  0  0  0
  120.8255  122.8887   79.7218 H   0  0  0  0  0  0  0  0  0  0  0  0
  120.0806  121.0903   80.9427 H   0  0  0  0  0  0  0  0  0  0  0  0
  121.7483  120.7470   81.6028 H   0  0  0  0  0  0  0  0  0  0  0  0
  119.9610  123.0438   82.4784 H   0  0  0  0  0  0  0  0  0  0  0  0
  120.1671  121.4487   83.3387 H   0  0  0  0  0  0  0  0  0  0  0  0
  122.5604  121.9140   83.6150 H   0  0  0  0  0  0  0  0  0  0  0  0
  122.3047  123.5343   82.8183 H   0  0  0  0  0  0  0  0  0  0  0  0
  121.6557  125.0726   85.9079 H   0  0  0  0  0  0  0  0  0  0  0  0
  122.4096  125.1347   84.2236 H   0  0  0  0  0  0  0  0  0  0  0  0
  119.5245  124.8285   84.1695 H   0  0  0  0  0  0  0  0  0  0  0  0
  120.1220  126.3571   85.0124 H   0  0  0  0  0  0  0  0  0  0  0  0
  121.0117  125.5473   82.2498 H   0  0  0  0  0  0  0  0  0  0  0  0
  119.5511  126.5868   82.5989 H   0  0  0  0  0  0  0  0  0  0  0  0
  121.5958  127.7449   84.0927 H   0  0  0  0  0  0  0  0  0  0  0  0
  122.3817  127.3006   82.5398 H   0  0  0  0  0  0  0  0  0  0  0  0
  120.9162  128.3393   82.5398 H   0  0  0  0  0  0  0  0  0  0  0  0
  123.8779  121.9794   85.1311 H   0  0  0  0  0  0  0  0  0  0  0  0
  126.6960  120.3246   83.9719 H   0  0  0  0  0  0  0  0  0  0  0  0
  125.5613  121.3928   83.0786 H   0  0  0  0  0  0  0  0  0  0  0  0
  127.3213  121.7520   83.0786 H   0  0  0  0  0  0  0  0  0  0  0  0
  127.4193  123.6990   85.8878 H   0  0  0  0  0  0  0  0  0  0  0  0
  128.1256  123.1433   84.3325 H   0  0  0  0  0  0  0  0  0  0  0  0
  126.6777  124.2065   84.3325 H   0  0  0  0  0  0  0  0  0  0  0  0
  123.1016  121.7588   90.0570 H   0  0  0  0  0  0  0  0  0  0  0  0
  1  2  1  0
  2  3  1  0
  3  4  1  0
  4  5  1  0
  5  6  1  0
  6  7  1  0
  7  8  1  0
  8  9  1  0
  5 10  1  0
 10 11  2  0
 10 12  1  0
 12 13  2  0
 13 14  1  0
 14 15  1  0
 15 16  2  0
 15 17  2  0
 15 18  1  0
 18 19  1  0
 18 20  1  0
 14 21  2  0
 21 22  1  0
 21 23  1  0
 23 24  2  0
 24 25  1  0
 24 12  1  0
  1 26  1  0
  1 27  1  0
  1 28  1  0
  2 29  1  0
  2 30  1  0
  3 31  1  0
  3 32  1  0
  4 33  1  0
  4 34  1  0
  6 35  1  0
  6 36  1  0
  7 37  1  0
  7 38  1  0
  8 39  1  0
  8 40  1  0
  9 41  1  0
  9 42  1  0
  9 43  1  0
 13 44  1  0
 19 45  1  0
 19 46  1  0
 19 47  1  0
 20 48  1  0
 20 49  1  0
 20 50  1  0
 23 51  1  0
M  END
>  <loss>  (1) 
0.4297752380371094

>  <score>  (1) 
4.798012733459473

$$$$
CMEGSHYBGCJHDV-UHFFFAOYSA-N
     RDKit          3D

 51 51  0  0  0  0  0  0  0  0999 V2000
  122.3147  121.6310   80.0628 C   0  0  0  0  0  0  0  0  0  0  0  0
  121.8051  122.2710   81.3459 C   0  0  0  0  0  0  0  0  0  0  0  0
  121.3860  121.2447   82.4010 C   0  0  0  0  0  0  0  0  0  0  0  0
  122.0645  121.4194   83.7667 C   0  0  0  0  0  0  0  0  0  0  0  0
  121.6647  122.6489   84.4692 N   0  0  0  0  0  0  0  0  0  0  0  0
  121.2803  123.8009   83.6468 C   0  0  0  0  0  0  0  0  0  0  0  0
  121.2179  125.0896   84.4727 C   0  0  0  0  0  0  0  0  0  0  0  0
  120.0384  125.9892   84.0998 C   0  0  0  0  0  0  0  0  0  0  0  0
  119.6574  125.9099   82.6296 C   0  0  0  0  0  0  0  0  0  0  0  0
  121.4599  122.7670   85.8444 C   0  0  0  0  0  0  0  0  0  0  0  0
  120.4688  123.2831   86.3561 O   0  0  0  0  0  0  0  0  0  0  0  0
  122.4860  122.2829   86.7777 C   0  0  0  0  0  0  0  0  0  0  0  0
  123.7839  122.1181   86.2829 C   0  0  0  0  0  0  0  0  0  0  0  0
  124.8101  121.7026   87.1433 C   0  0  0  0  0  0  0  0  0  0  0  0
  126.4237  121.4461   86.4567 S   0  0  0  0  0  6  0  0  0  0  0  0
  127.3624  122.1795   87.2762 O   0  0  0  0  0  0  0  0  0  0  0  0
  126.5966  120.0230   86.2450 O   0  0  0  0  0  0  0  0  0  0  0  0
  126.3230  122.1666   84.9124 N   0  0  0  0  0  0  0  0  0  0  0  0
  126.7396  121.3067   83.7824 C   0  0  0  0  0  0  0  0  0  0  0  0
  126.9661  123.4984   84.8492 C   0  0  0  0  0  0  0  0  0  0  0  0
  124.5417  121.4731   88.4957 C   0  0  0  0  0  0  0  0  0  0  0  0
  125.7274  120.9765   89.6468 Cl  0  0  0  0  0  0  0  0  0  0  0  0
  123.2420  121.6691   88.9845 C   0  0  0  0  0  0  0  0  0  0  0  0
  122.2142  122.0807   88.1319 C   0  0  0  0  0  0  0  0  0  0  0  0
  120.6442  122.3211   88.8059 Cl  0  0  0  0  0  0  0  0  0  0  0  0
  122.9822  120.7926   80.3112 H   0  0  0  0  0  0  0  0  0  0  0  0
  121.4625  121.2594   79.4749 H   0  0  0  0  0  0  0  0  0  0  0  0
  122.8678  122.3782   79.4749 H   0  0  0  0  0  0  0  0  0  0  0  0
  122.6048  122.8988   81.7659 H   0  0  0  0  0  0  0  0  0  0  0  0
  120.9129  122.8603   81.0877 H   0  0  0  0  0  0  0  0  0  0  0  0
  120.2985  121.3254   82.5452 H   0  0  0  0  0  0  0  0  0  0  0  0
  121.6987  120.2610   82.0208 H   0  0  0  0  0  0  0  0  0  0  0  0
  121.8030  120.5574   84.3979 H   0  0  0  0  0  0  0  0  0  0  0  0
  123.1468  121.4899   83.5829 H   0  0  0  0  0  0  0  0  0  0  0  0
  122.0202  123.9280   82.8428 H   0  0  0  0  0  0  0  0  0  0  0  0
  120.2791  123.6090   83.2335 H   0  0  0  0  0  0  0  0  0  0  0  0
  121.1290  124.8196   85.5353 H   0  0  0  0  0  0  0  0  0  0  0  0
  122.1381  125.6553   84.2650 H   0  0  0  0  0  0  0  0  0  0  0  0
  119.1679  125.6897   84.7019 H   0  0  0  0  0  0  0  0  0  0  0  0
  120.3461  127.0262   84.2993 H   0  0  0  0  0  0  0  0  0  0  0  0
  118.5840  125.6867   82.5405 H   0  0  0  0  0  0  0  0  0  0  0  0
  119.8735  126.8722   82.1425 H   0  0  0  0  0  0  0  0  0  0  0  0
  120.2392  125.1136   82.1425 H   0  0  0  0  0  0  0  0  0  0  0  0
  123.9989  122.3137   85.2220 H   0  0  0  0  0  0  0  0  0  0  0  0
  127.1882  120.3810   84.1721 H   0  0  0  0  0  0  0  0  0  0  0  0
  125.8620  121.0584   83.1676 H   0  0  0  0  0  0  0  0  0  0  0  0
  127.4785  121.8416   83.1676 H   0  0  0  0  0  0  0  0  0  0  0  0
  127.1447  123.8681   85.8697 H   0  0  0  0  0  0  0  0  0  0  0  0
  127.9246  123.4178   84.3155 H   0  0  0  0  0  0  0  0  0  0  0  0
  126.3070  124.1989   84.3155 H   0  0  0  0  0  0  0  0  0  0  0  0
  123.0294  121.4972   90.0500 H   0  0  0  0  0  0  0  0  0  0  0  0
  1  2  1  0
  2  3  1  0
  3  4  1  0
  4  5  1  0
  5  6  1  0
  6  7  1  0
  7  8  1  0
  8  9  1  0
  5 10  1  0
 10 11  2  0
 10 12  1  0
 12 13  2  0
 13 14  1  0
 14 15  1  0
 15 16  2  0
 15 17  2  0
 15 18  1  0
 18 19  1  0
 18 20  1  0
 14 21  2  0
 21 22  1  0
 21 23  1  0
 23 24  2  0
 24 25  1  0
 24 12  1  0
  1 26  1  0
  1 27  1  0
  1 28  1  0
  2 29  1  0
  2 30  1  0
  3 31  1  0
  3 32  1  0
  4 33  1  0
  4 34  1  0
  6 35  1  0
  6 36  1  0
  7 37  1  0
  7 38  1  0
  8 39  1  0
  8 40  1  0
  9 41  1  0
  9 42  1  0
  9 43  1  0
 13 44  1  0
 19 45  1  0
 19 46  1  0
 19 47  1  0
 20 48  1  0
 20 49  1  0
 20 50  1  0
 23 51  1  0
M  END
>  <loss>  (2) 
0.45076921582221985

>  <score>  (2) 
4.875056266784668

$$$$
CMEGSHYBGCJHDV-UHFFFAOYSA-N
     RDKit          3D

 51 51  0  0  0  0  0  0  0  0999 V2000
  119.4903  121.8473   81.2075 C   0  0  0  0  0  0  0  0  0  0  0  0
  118.8020  121.9960   82.5556 C   0  0  0  0  0  0  0  0  0  0  0  0
  119.4070  123.0974   83.4290 C   0  0  0  0  0  0  0  0  0  0  0  0
  120.9378  123.0802   83.4437 C   0  0  0  0  0  0  0  0  0  0  0  0
  121.5061  123.5177   84.7255 N   0  0  0  0  0  0  0  0  0  0  0  0
  122.3993  124.6854   84.7178 C   0  0  0  0  0  0  0  0  0  0  0  0
  121.7236  126.0452   84.5106 C   0  0  0  0  0  0  0  0  0  0  0  0
  121.4845  126.4539   83.0582 C   0  0  0  0  0  0  0  0  0  0  0  0
  122.7151  127.0411   82.3847 C   0  0  0  0  0  0  0  0  0  0  0  0
  121.2630  122.6883   85.8249 C   0  0  0  0  0  0  0  0  0  0  0  0
  120.1743  122.1744   86.0706 O   0  0  0  0  0  0  0  0  0  0  0  0
  122.3640  122.3475   86.7391 C   0  0  0  0  0  0  0  0  0  0  0  0
  123.6204  122.0640   86.1914 C   0  0  0  0  0  0  0  0  0  0  0  0
  124.6784  121.6848   87.0313 C   0  0  0  0  0  0  0  0  0  0  0  0
  126.2558  121.3580   86.2913 S   0  0  0  0  0  6  0  0  0  0  0  0
  127.2680  121.9029   87.1670 O   0  0  0  0  0  0  0  0  0  0  0  0
  126.2828  119.9599   85.9091 O   0  0  0  0  0  0  0  0  0  0  0  0
  126.2121  122.2539   84.8375 N   0  0  0  0  0  0  0  0  0  0  0  0
  126.4345  121.4757   83.6009 C   0  0  0  0  0  0  0  0  0  0  0  0
  127.0558  123.4698   84.8782 C   0  0  0  0  0  0  0  0  0  0  0  0
  124.4714  121.5564   88.4074 C   0  0  0  0  0  0  0  0  0  0  0  0
  125.6973  121.0982   89.5320 Cl  0  0  0  0  0  0  0  0  0  0  0  0
  123.2019  121.8191   88.9409 C   0  0  0  0  0  0  0  0  0  0  0  0
  122.1461  122.2086   88.1117 C   0  0  0  0  0  0  0  0  0  0  0  0
  120.6209  122.5450   88.8459 Cl  0  0  0  0  0  0  0  0  0  0  0  0
  120.5547  121.6173   81.3628 H   0  0  0  0  0  0  0  0  0  0  0  0
  119.0173  121.0306   80.6424 H   0  0  0  0  0  0  0  0  0  0  0  0
  119.3968  122.7864   80.6424 H   0  0  0  0  0  0  0  0  0  0  0  0
  117.7418  122.2321   82.3815 H   0  0  0  0  0  0  0  0  0  0  0  0
  118.9336  121.0458   83.0939 H   0  0  0  0  0  0  0  0  0  0  0  0
  119.0716  124.0722   83.0454 H   0  0  0  0  0  0  0  0  0  0  0  0
  119.0674  122.9213   84.4604 H   0  0  0  0  0  0  0  0  0  0  0  0
  121.2784  122.0540   83.2416 H   0  0  0  0  0  0  0  0  0  0  0  0
  121.2813  123.7870   82.6740 H   0  0  0  0  0  0  0  0  0  0  0  0
  122.9246  124.7140   85.6838 H   0  0  0  0  0  0  0  0  0  0  0  0
  123.0613  124.5473   83.8502 H   0  0  0  0  0  0  0  0  0  0  0  0
  120.7483  126.0184   85.0187 H   0  0  0  0  0  0  0  0  0  0  0  0
  122.4209  126.7910   84.9201 H   0  0  0  0  0  0  0  0  0  0  0  0
  121.1690  125.5644   82.4932 H   0  0  0  0  0  0  0  0  0  0  0  0
  120.7131  127.2381   83.0647 H   0  0  0  0  0  0  0  0  0  0  0  0
  123.4263  127.3804   83.1522 H   0  0  0  0  0  0  0  0  0  0  0  0
  123.1913  126.2732   81.7574 H   0  0  0  0  0  0  0  0  0  0  0  0
  122.4178  127.8944   81.7574 H   0  0  0  0  0  0  0  0  0  0  0  0
  123.7779  122.1382   85.1053 H   0  0  0  0  0  0  0  0  0  0  0  0
  126.7282  120.4483   83.8621 H   0  0  0  0  0  0  0  0  0  0  0  0
  125.5069  121.4530   83.0102 H   0  0  0  0  0  0  0  0  0  0  0  0
  127.2340  121.9466   83.0102 H   0  0  0  0  0  0  0  0  0  0  0  0
  127.2485  123.7475   85.9250 H   0  0  0  0  0  0  0  0  0  0  0  0
  128.0108  123.2707   84.3700 H   0  0  0  0  0  0  0  0  0  0  0  0
  126.5350  124.2947   84.3700 H   0  0  0  0  0  0  0  0  0  0  0  0
  123.0349  121.7178   90.0234 H   0  0  0  0  0  0  0  0  0  0  0  0
  1  2  1  0
  2  3  1  0
  3  4  1  0
  4  5  1  0
  5  6  1  0
  6  7  1  0
  7  8  1  0
  8  9  1  0
  5 10  1  0
 10 11  2  0
 10 12  1  0
 12 13  2  0
 13 14  1  0
 14 15  1  0
 15 16  2  0
 15 17  2  0
 15 18  1  0
 18 19  1  0
 18 20  1  0
 14 21  2  0
 21 22  1  0
 21 23  1  0
 23 24  2  0
 24 25  1  0
 24 12  1  0
  1 26  1  0
  1 27  1  0
  1 28  1  0
  2 29  1  0
  2 30  1  0
  3 31  1  0
  3 32  1  0
  4 33  1  0
  4 34  1  0
  6 35  1  0
  6 36  1  0
  7 37  1  0
  7 38  1  0
  8 39  1  0
  8 40  1  0
  9 41  1  0
  9 42  1  0
  9 43  1  0
 13 44  1  0
 19 45  1  0
 19 46  1  0
 19 47  1  0
 20 48  1  0
 20 49  1  0
 20 50  1  0
 23 51  1  0
M  END
>  <loss>  (3) 
0.43511131405830383

>  <score>  (3) 
4.689932823181152

$$$$
CMEGSHYBGCJHDV-UHFFFAOYSA-N
     RDKit          3D

 51 51  0  0  0  0  0  0  0  0999 V2000
  121.6528  121.5324   80.5165 C   0  0  0  0  0  0  0  0  0  0  0  0
  121.0669  120.8055   81.7172 C   0  0  0  0  0  0  0  0  0  0  0  0
  120.7038  121.7382   82.8748 C   0  0  0  0  0  0  0  0  0  0  0  0
  121.8645  122.6367   83.3098 C   0  0  0  0  0  0  0  0  0  0  0  0
  121.5966  123.3579   84.5611 N   0  0  0  0  0  0  0  0  0  0  0  0
  121.7776  124.8168   84.5651 C   0  0  0  0  0  0  0  0  0  0  0  0
  120.5130  125.6501   84.3309 C   0  0  0  0  0  0  0  0  0  0  0  0
  120.1350  125.8879   82.8700 C   0  0  0  0  0  0  0  0  0  0  0  0
  121.1739  126.6871   82.0989 C   0  0  0  0  0  0  0  0  0  0  0  0
  121.3347  122.5688   85.6856 C   0  0  0  0  0  0  0  0  0  0  0  0
  120.2495  122.0411   85.9171 O   0  0  0  0  0  0  0  0  0  0  0  0
  122.4118  122.2904   86.6481 C   0  0  0  0  0  0  0  0  0  0  0  0
  123.7116  122.1144   86.1601 C   0  0  0  0  0  0  0  0  0  0  0  0
  124.7525  121.7963   87.0455 C   0  0  0  0  0  0  0  0  0  0  0  0
  126.3848  121.6057   86.3810 S   0  0  0  0  0  6  0  0  0  0  0  0
  127.2559  122.5047   87.1032 O   0  0  0  0  0  0  0  0  0  0  0  0
  126.6733  120.1864   86.3193 O   0  0  0  0  0  0  0  0  0  0  0  0
  126.2262  122.1355   84.7647 N   0  0  0  0  0  0  0  0  0  0  0  0
  126.4017  121.0938   83.7311 C   0  0  0  0  0  0  0  0  0  0  0  0
  127.0297  123.3429   84.4670 C   0  0  0  0  0  0  0  0  0  0  0  0
  124.4879  121.6209   88.4065 C   0  0  0  0  0  0  0  0  0  0  0  0
  125.6878  121.2299   89.5832 Cl  0  0  0  0  0  0  0  0  0  0  0  0
  123.1772  121.7755   88.8792 C   0  0  0  0  0  0  0  0  0  0  0  0
  122.1373  122.1038   88.0048 C   0  0  0  0  0  0  0  0  0  0  0  0
  120.5564  122.3080   88.6664 Cl  0  0  0  0  0  0  0  0  0  0  0  0
  122.3078  122.3450   80.8636 H   0  0  0  0  0  0  0  0  0  0  0  0
  122.2364  120.8252   79.9087 H   0  0  0  0  0  0  0  0  0  0  0  0
  120.8378  121.9525   79.9087 H   0  0  0  0  0  0  0  0  0  0  0  0
  120.1567  120.2783   81.3955 H   0  0  0  0  0  0  0  0  0  0  0  0
  121.8390  120.1147   82.0869 H   0  0  0  0  0  0  0  0  0  0  0  0
  119.8656  122.3772   82.5597 H   0  0  0  0  0  0  0  0  0  0  0  0
  120.4391  121.1054   83.7348 H   0  0  0  0  0  0  0  0  0  0  0  0
  122.7580  122.0108   83.4507 H   0  0  0  0  0  0  0  0  0  0  0  0
  122.0098  123.3900   82.5214 H   0  0  0  0  0  0  0  0  0  0  0  0
  122.1926  125.1021   85.5430 H   0  0  0  0  0  0  0  0  0  0  0  0
  122.4398  125.0364   83.7146 H   0  0  0  0  0  0  0  0  0  0  0  0
  119.6728  125.1325   84.8170 H   0  0  0  0  0  0  0  0  0  0  0  0
  120.7283  126.6443   84.7495 H   0  0  0  0  0  0  0  0  0  0  0  0
  120.0112  124.9116   82.3786 H   0  0  0  0  0  0  0  0  0  0  0  0
  119.2055  126.4762   82.8670 H   0  0  0  0  0  0  0  0  0  0  0  0
  121.8412  127.2004   82.8068 H   0  0  0  0  0  0  0  0  0  0  0  0
  121.7636  126.0076   81.4660 H   0  0  0  0  0  0  0  0  0  0  0  0
  120.6684  127.4314   81.4660 H   0  0  0  0  0  0  0  0  0  0  0  0
  123.9167  122.2253   85.0851 H   0  0  0  0  0  0  0  0  0  0  0  0
  126.5658  120.1202   84.2160 H   0  0  0  0  0  0  0  0  0  0  0  0
  125.4994  121.0437   83.1041 H   0  0  0  0  0  0  0  0  0  0  0  0
  127.2707  121.3423   83.1041 H   0  0  0  0  0  0  0  0  0  0  0  0
  127.3443  123.8154   85.4093 H   0  0  0  0  0  0  0  0  0  0  0  0
  127.9187  123.0575   83.8854 H   0  0  0  0  0  0  0  0  0  0  0  0
  126.4233  124.0527   83.8854 H   0  0  0  0  0  0  0  0  0  0  0  0
  122.9649  121.6369   89.9496 H   0  0  0  0  0  0  0  0  0  0  0  0
  1  2  1  0
  2  3  1  0
  3  4  1  0
  4  5  1  0
  5  6  1  0
  6  7  1  0
  7  8  1  0
  8  9  1  0
  5 10  1  0
 10 11  2  0
 10 12  1  0
 12 13  2  0
 13 14  1  0
 14 15  1  0
 15 16  2  0
 15 17  2  0
 15 18  1  0
 18 19  1  0
 18 20  1  0
 14 21  2  0
 21 22  1  0
 21 23  1  0
 23 24  2  0
 24 25  1  0
 24 12  1  0
  1 26  1  0
  1 27  1  0
  1 28  1  0
  2 29  1  0
  2 30  1  0
  3 31  1  0
  3 32  1  0
  4 33  1  0
  4 34  1  0
  6 35  1  0
  6 36  1  0
  7 37  1  0
  7 38  1  0
  8 39  1  0
  8 40  1  0
  9 41  1  0
  9 42  1  0
  9 43  1  0
 13 44  1  0
 19 45  1  0
 19 46  1  0
 19 47  1  0
 20 48  1  0
 20 49  1  0
 20 50  1  0
 23 51  1  0
M  END
>  <loss>  (4) 
0.4493263065814972

>  <score>  (4) 
4.739155292510986

$$$$
CMEGSHYBGCJHDV-UHFFFAOYSA-N
     RDKit          3D

 51 51  0  0  0  0  0  0  0  0999 V2000
  117.8648  123.9069   82.5254 C   0  0  0  0  0  0  0  0  0  0  0  0
  118.1842  124.1704   83.9888 C   0  0  0  0  0  0  0  0  0  0  0  0
  119.6823  124.3080   84.2691 C   0  0  0  0  0  0  0  0  0  0  0  0
  120.5228  123.2224   83.5917 C   0  0  0  0  0  0  0  0  0  0  0  0
  121.6711  122.7943   84.4015 N   0  0  0  0  0  0  0  0  0  0  0  0
  122.9955  122.7835   83.7633 C   0  0  0  0  0  0  0  0  0  0  0  0
  123.3889  124.0608   83.0133 C   0  0  0  0  0  0  0  0  0  0  0  0
  122.9696  124.1254   81.5458 C   0  0  0  0  0  0  0  0  0  0  0  0
  123.7778  123.2048   80.6448 C   0  0  0  0  0  0  0  0  0  0  0  0
  121.3776  122.2899   85.6724 C   0  0  0  0  0  0  0  0  0  0  0  0
  120.2599  121.9198   86.0235 O   0  0  0  0  0  0  0  0  0  0  0  0
  122.4554  122.1320   86.6612 C   0  0  0  0  0  0  0  0  0  0  0  0
  123.7379  121.8106   86.2023 C   0  0  0  0  0  0  0  0  0  0  0  0
  124.7764  121.6019   87.1224 C   0  0  0  0  0  0  0  0  0  0  0  0
  126.3876  121.2190   86.4900 S   0  0  0  0  0  6  0  0  0  0  0  0
  127.2972  121.1801   87.6124 O   0  0  0  0  0  0  0  0  0  0  0  0
  126.2550  120.0783   85.6053 O   0  0  0  0  0  0  0  0  0  0  0  0
  126.7592  122.5582   85.4966 N   0  0  0  0  0  0  0  0  0  0  0  0
  125.9583  122.6778   84.2603 C   0  0  0  0  0  0  0  0  0  0  0  0
  128.2081  122.6970   85.2258 C   0  0  0  0  0  0  0  0  0  0  0  0
  124.5251  121.6802   88.4949 C   0  0  0  0  0  0  0  0  0  0  0  0
  125.7236  121.4431   89.7134 Cl  0  0  0  0  0  0  0  0  0  0  0  0
  123.2306  121.9785   88.9425 C   0  0  0  0  0  0  0  0  0  0  0  0
  122.1936  122.1990   88.0315 C   0  0  0  0  0  0  0  0  0  0  0  0
  120.6344  122.5923   88.6582 Cl  0  0  0  0  0  0  0  0  0  0  0  0
  117.0180  123.2083   82.4549 H   0  0  0  0  0  0  0  0  0  0  0  0
  117.6011  124.8537   82.0314 H   0  0  0  0  0  0  0  0  0  0  0  0
  118.7443  123.4681   82.0314 H   0  0  0  0  0  0  0  0  0  0  0  0
  117.6857  125.1030   84.2920 H   0  0  0  0  0  0  0  0  0  0  0  0
  117.8254  123.3020   84.5608 H   0  0  0  0  0  0  0  0  0  0  0  0
  120.0181  125.2896   83.9034 H   0  0  0  0  0  0  0  0  0  0  0  0
  119.8237  124.2022   85.3548 H   0  0  0  0  0  0  0  0  0  0  0  0
  119.8813  122.3488   83.4043 H   0  0  0  0  0  0  0  0  0  0  0  0
  120.9199  123.6491   82.6588 H   0  0  0  0  0  0  0  0  0  0  0  0
  123.7461  122.6092   84.5483 H   0  0  0  0  0  0  0  0  0  0  0  0
  122.9512  121.9926   83.0002 H   0  0  0  0  0  0  0  0  0  0  0  0
  122.9283  124.9133   83.5339 H   0  0  0  0  0  0  0  0  0  0  0  0
  124.4887  124.0793   83.0110 H   0  0  0  0  0  0  0  0  0  0  0  0
  121.9094  123.8412   81.4734 H   0  0  0  0  0  0  0  0  0  0  0  0
  123.1489  125.1549   81.2023 H   0  0  0  0  0  0  0  0  0  0  0  0
  124.3781  122.5210   81.2630 H   0  0  0  0  0  0  0  0  0  0  0  0
  123.0950  122.6211   80.0098 H   0  0  0  0  0  0  0  0  0  0  0  0
  124.4449  123.8062   80.0098 H   0  0  0  0  0  0  0  0  0  0  0  0
  123.9313  121.7218   85.1231 H   0  0  0  0  0  0  0  0  0  0  0  0
  124.9016  122.8357   84.5218 H   0  0  0  0  0  0  0  0  0  0  0  0
  126.3213  123.5317   83.6695 H   0  0  0  0  0  0  0  0  0  0  0  0
  126.0559  121.7551   83.6695 H   0  0  0  0  0  0  0  0  0  0  0  0
  128.7558  122.7494   86.1783 H   0  0  0  0  0  0  0  0  0  0  0  0
  128.5582  121.8283   84.6489 H   0  0  0  0  0  0  0  0  0  0  0  0
  128.3869  123.6164   84.6489 H   0  0  0  0  0  0  0  0  0  0  0  0
  123.0286  122.0396   90.0221 H   0  0  0  0  0  0  0  0  0  0  0  0
  1  2  1  0
  2  3  1  0
  3  4  1  0
  4  5  1  0
  5  6  1  0
  6  7  1  0
  7  8  1  0
  8  9  1  0
  5 10  1  0
 10 11  2  0
 10 12  1  0
 12 13  2  0
 13 14  1  0
 14 15  1  0
 15 16  2  0
 15 17  2  0
 15 18  1  0
 18 19  1  0
 18 20  1  0
 14 21  2  0
 21 22  1  0
 21 23  1  0
 23 24  2  0
 24 25  1  0
 24 12  1  0
  1 26  1  0
  1 27  1  0
  1 28  1  0
  2 29  1  0
  2 30  1  0
  3 31  1  0
  3 32  1  0
  4 33  1  0
  4 34  1  0
  6 35  1  0
  6 36  1  0
  7 37  1  0
  7 38  1  0
  8 39  1  0
  8 40  1  0
  9 41  1  0
  9 42  1  0
  9 43  1  0
 13 44  1  0
 19 45  1  0
 19 46  1  0
 19 47  1  0
 20 48  1  0
 20 49  1  0
 20 50  1  0
 23 51  1  0
M  END
>  <loss>  (5) 
0.46509695053100586

>  <score>  (5) 
4.792764663696289

$$$$
CMEGSHYBGCJHDV-UHFFFAOYSA-N
     RDKit          3D

 51 51  0  0  0  0  0  0  0  0999 V2000
  120.7085  121.7355   80.4381 C   0  0  0  0  0  0  0  0  0  0  0  0
  120.0469  121.2284   81.7102 C   0  0  0  0  0  0  0  0  0  0  0  0
  120.0820  122.2395   82.8584 C   0  0  0  0  0  0  0  0  0  0  0  0
  121.4955  122.7269   83.1873 C   0  0  0  0  0  0  0  0  0  0  0  0
  121.5822  123.4066   84.4866 N   0  0  0  0  0  0  0  0  0  0  0  0
  122.1017  124.7817   84.5089 C   0  0  0  0  0  0  0  0  0  0  0  0
  121.0635  125.8938   84.3242 C   0  0  0  0  0  0  0  0  0  0  0  0
  120.9943  126.5132   82.9295 C   0  0  0  0  0  0  0  0  0  0  0  0
  122.1699  127.4248   82.6136 C   0  0  0  0  0  0  0  0  0  0  0  0
  121.3002  122.6264   85.6125 C   0  0  0  0  0  0  0  0  0  0  0  0
  120.2027  122.1249   85.8436 O   0  0  0  0  0  0  0  0  0  0  0  0
  122.3691  122.3251   86.5773 C   0  0  0  0  0  0  0  0  0  0  0  0
  123.6531  122.0604   86.0872 C   0  0  0  0  0  0  0  0  0  0  0  0
  124.6829  121.7185   86.9767 C   0  0  0  0  0  0  0  0  0  0  0  0
  126.2964  121.4145   86.3085 S   0  0  0  0  0  6  0  0  0  0  0  0
  127.2480  122.1302   87.1275 O   0  0  0  0  0  0  0  0  0  0  0  0
  126.4262  119.9857   86.1009 O   0  0  0  0  0  0  0  0  0  0  0  0
  126.2293  122.1227   84.7553 N   0  0  0  0  0  0  0  0  0  0  0  0
  126.7613  121.2950   83.6526 C   0  0  0  0  0  0  0  0  0  0  0  0
  126.7750  123.4985   84.7195 C   0  0  0  0  0  0  0  0  0  0  0  0
  124.4213  121.6081   88.3451 C   0  0  0  0  0  0  0  0  0  0  0  0
  125.6085  121.1956   89.5272 Cl  0  0  0  0  0  0  0  0  0  0  0  0
  123.1253  121.8515   88.8207 C   0  0  0  0  0  0  0  0  0  0  0  0
  122.0970  122.2039   87.9419 C   0  0  0  0  0  0  0  0  0  0  0  0
  120.5356  122.5186   88.6063 Cl  0  0  0  0  0  0  0  0  0  0  0  0
  121.5565  122.3854   80.6997 H   0  0  0  0  0  0  0  0  0  0  0  0
  121.0701  120.8810   79.8472 H   0  0  0  0  0  0  0  0  0  0  0  0
  119.9774  122.3067   79.8472 H   0  0  0  0  0  0  0  0  0  0  0  0
  118.9963  120.9915   81.4862 H   0  0  0  0  0  0  0  0  0  0  0  0
  120.6117  120.3438   82.0394 H   0  0  0  0  0  0  0  0  0  0  0  0
  119.4684  123.1085   82.5783 H   0  0  0  0  0  0  0  0  0  0  0  0
  119.6936  121.7322   83.7538 H   0  0  0  0  0  0  0  0  0  0  0  0
  122.1710  121.8589   83.2004 H   0  0  0  0  0  0  0  0  0  0  0  0
  121.7788  123.4574   82.4152 H   0  0  0  0  0  0  0  0  0  0  0  0
  122.5953  124.9396   85.4791 H   0  0  0  0  0  0  0  0  0  0  0  0
  122.7764  124.8585   83.6435 H   0  0  0  0  0  0  0  0  0  0  0  0
  120.0738  125.4736   84.5564 H   0  0  0  0  0  0  0  0  0  0  0  0
  121.3733  126.7068   84.9973 H   0  0  0  0  0  0  0  0  0  0  0  0
  120.9740  125.7010   82.1880 H   0  0  0  0  0  0  0  0  0  0  0  0
  120.0854  127.1319   82.8940 H   0  0  0  0  0  0  0  0  0  0  0  0
  122.6235  127.7766   83.5519 H   0  0  0  0  0  0  0  0  0  0  0  0
  122.9186  126.8688   82.0302 H   0  0  0  0  0  0  0  0  0  0  0  0
  121.8178  128.2883   82.0302 H   0  0  0  0  0  0  0  0  0  0  0  0
  123.8543  122.1203   85.0075 H   0  0  0  0  0  0  0  0  0  0  0  0
  127.3117  120.4387   84.0695 H   0  0  0  0  0  0  0  0  0  0  0  0
  125.9285  120.9295   83.0338 H   0  0  0  0  0  0  0  0  0  0  0  0
  127.4396  121.9007   83.0338 H   0  0  0  0  0  0  0  0  0  0  0  0
  126.9194  123.8626   85.7475 H   0  0  0  0  0  0  0  0  0  0  0  0
  127.7404  123.4964   84.1923 H   0  0  0  0  0  0  0  0  0  0  0  0
  126.0707  124.1588   84.1923 H   0  0  0  0  0  0  0  0  0  0  0  0
  122.9153  121.7642   89.8970 H   0  0  0  0  0  0  0  0  0  0  0  0
  1  2  1  0
  2  3  1  0
  3  4  1  0
  4  5  1  0
  5  6  1  0
  6  7  1  0
  7  8  1  0
  8  9  1  0
  5 10  1  0
 10 11  2  0
 10 12  1  0
 12 13  2  0
 13 14  1  0
 14 15  1  0
 15 16  2  0
 15 17  2  0
 15 18  1  0
 18 19  1  0
 18 20  1  0
 14 21  2  0
 21 22  1  0
 21 23  1  0
 23 24  2  0
 24 25  1  0
 24 12  1  0
  1 26  1  0
  1 27  1  0
  1 28  1  0
  2 29  1  0
  2 30  1  0
  3 31  1  0
  3 32  1  0
  4 33  1  0
  4 34  1  0
  6 35  1  0
  6 36  1  0
  7 37  1  0
  7 38  1  0
  8 39  1  0
  8 40  1  0
  9 41  1  0
  9 42  1  0
  9 43  1  0
 13 44  1  0
 19 45  1  0
 19 46  1  0
 19 47  1  0
 20 48  1  0
 20 49  1  0
 20 50  1  0
 23 51  1  0
M  END
>  <loss>  (6) 
0.43771106004714966

>  <score>  (6) 
4.640010356903076

$$$$
CMEGSHYBGCJHDV-UHFFFAOYSA-N
     RDKit          3D

 51 51  0  0  0  0  0  0  0  0999 V2000
  116.9600  123.3508   83.0729 C   0  0  0  0  0  0  0  0  0  0  0  0
  118.2794  124.0932   83.2114 C   0  0  0  0  0  0  0  0  0  0  0  0
  119.4206  123.1436   83.5712 C   0  0  0  0  0  0  0  0  0  0  0  0
  120.7398  123.9000   83.7423 C   0  0  0  0  0  0  0  0  0  0  0  0
  121.7365  123.0906   84.4466 N   0  0  0  0  0  0  0  0  0  0  0  0
  122.9691  122.7626   83.7215 C   0  0  0  0  0  0  0  0  0  0  0  0
  123.2525  123.6878   82.5335 C   0  0  0  0  0  0  0  0  0  0  0  0
  122.3618  123.4165   81.3212 C   0  0  0  0  0  0  0  0  0  0  0  0
  122.7112  124.3367   80.1614 C   0  0  0  0  0  0  0  0  0  0  0  0
  121.3788  122.5865   85.6973 C   0  0  0  0  0  0  0  0  0  0  0  0
  120.2220  122.4633   86.0902 O   0  0  0  0  0  0  0  0  0  0  0  0
  122.4361  122.1992   86.6430 C   0  0  0  0  0  0  0  0  0  0  0  0
  123.6960  121.8890   86.1198 C   0  0  0  0  0  0  0  0  0  0  0  0
  124.7422  121.5369   86.9849 C   0  0  0  0  0  0  0  0  0  0  0  0
  126.3130  121.1263   86.2735 S   0  0  0  0  0  6  0  0  0  0  0  0
  127.3402  121.4665   87.2376 O   0  0  0  0  0  0  0  0  0  0  0  0
  126.2144  119.7851   85.7440 O   0  0  0  0  0  0  0  0  0  0  0  0
  126.4723  122.2396   84.9859 N   0  0  0  0  0  0  0  0  0  0  0  0
  126.7939  123.6274   85.3815 C   0  0  0  0  0  0  0  0  0  0  0  0
  127.3687  121.7568   83.9107 C   0  0  0  0  0  0  0  0  0  0  0  0
  124.5369  121.5305   88.3674 C   0  0  0  0  0  0  0  0  0  0  0  0
  125.7457  121.1061   89.5234 Cl  0  0  0  0  0  0  0  0  0  0  0  0
  123.2776  121.8747   88.8799 C   0  0  0  0  0  0  0  0  0  0  0  0
  122.2277  122.2154   88.0228 C   0  0  0  0  0  0  0  0  0  0  0  0
  120.7073  122.6340   88.7233 Cl  0  0  0  0  0  0  0  0  0  0  0  0
  116.5595  123.1254   84.0723 H   0  0  0  0  0  0  0  0  0  0  0  0
  116.2424  123.9776   82.5232 H   0  0  0  0  0  0  0  0  0  0  0  0
  117.1234  122.4121   82.5232 H   0  0  0  0  0  0  0  0  0  0  0  0
  118.5132  124.5877   82.2570 H   0  0  0  0  0  0  0  0  0  0  0  0
  118.1768  124.8319   84.0200 H   0  0  0  0  0  0  0  0  0  0  0  0
  119.1767  122.6309   84.5133 H   0  0  0  0  0  0  0  0  0  0  0  0
  119.5398  122.4180   82.7530 H   0  0  0  0  0  0  0  0  0  0  0  0
  121.1315  124.1642   82.7490 H   0  0  0  0  0  0  0  0  0  0  0  0
  120.5445  124.8027   84.3397 H   0  0  0  0  0  0  0  0  0  0  0  0
  123.8131  122.8312   84.4235 H   0  0  0  0  0  0  0  0  0  0  0  0
  122.8412  121.7487   83.3145 H   0  0  0  0  0  0  0  0  0  0  0  0
  123.0934  124.7272   82.8564 H   0  0  0  0  0  0  0  0  0  0  0  0
  124.2902  123.5016   82.2197 H   0  0  0  0  0  0  0  0  0  0  0  0
  122.4974  122.3722   81.0035 H   0  0  0  0  0  0  0  0  0  0  0  0
  121.3168  123.6030   81.6096 H   0  0  0  0  0  0  0  0  0  0  0  0
  123.0761  125.2977   80.5529 H   0  0  0  0  0  0  0  0  0  0  0  0
  123.4947  123.8700   79.5463 H   0  0  0  0  0  0  0  0  0  0  0  0
  121.8154  124.5077   79.5463 H   0  0  0  0  0  0  0  0  0  0  0  0
  123.8655  121.9210   85.0334 H   0  0  0  0  0  0  0  0  0  0  0  0
  126.8110  123.7012   86.4789 H   0  0  0  0  0  0  0  0  0  0  0  0
  127.7799  123.9040   84.9800 H   0  0  0  0  0  0  0  0  0  0  0  0
  126.0299  124.3094   84.9800 H   0  0  0  0  0  0  0  0  0  0  0  0
  128.2537  121.2801   84.3576 H   0  0  0  0  0  0  0  0  0  0  0  0
  126.8333  121.0250   83.2879 H   0  0  0  0  0  0  0  0  0  0  0  0
  127.6851  122.6065   83.2879 H   0  0  0  0  0  0  0  0  0  0  0  0
  123.1146  121.8765   89.9678 H   0  0  0  0  0  0  0  0  0  0  0  0
  1  2  1  0
  2  3  1  0
  3  4  1  0
  4  5  1  0
  5  6  1  0
  6  7  1  0
  7  8  1  0
  8  9  1  0
  5 10  1  0
 10 11  2  0
 10 12  1  0
 12 13  2  0
 13 14  1  0
 14 15  1  0
 15 16  2  0
 15 17  2  0
 15 18  1  0
 18 19  1  0
 18 20  1  0
 14 21  2  0
 21 22  1  0
 21 23  1  0
 23 24  2  0
 24 25  1  0
 24 12  1  0
  1 26  1  0
  1 27  1  0
  1 28  1  0
  2 29  1  0
  2 30  1  0
  3 31  1  0
  3 32  1  0
  4 33  1  0
  4 34  1  0
  6 35  1  0
  6 36  1  0
  7 37  1  0
  7 38  1  0
  8 39  1  0
  8 40  1  0
  9 41  1  0
  9 42  1  0
  9 43  1  0
 13 44  1  0
 19 45  1  0
 19 46  1  0
 19 47  1  0
 20 48  1  0
 20 49  1  0
 20 50  1  0
 23 51  1  0
M  END
>  <loss>  (7) 
0.4489508867263794

>  <score>  (7) 
4.629030704498291

$$$$
CMEGSHYBGCJHDV-UHFFFAOYSA-N
     RDKit          3D

 51 51  0  0  0  0  0  0  0  0999 V2000
  118.1134  119.9189   83.0363 C   0  0  0  0  0  0  0  0  0  0  0  0
  118.6241  121.3481   82.9468 C   0  0  0  0  0  0  0  0  0  0  0  0
  119.9455  121.5178   83.6943 C   0  0  0  0  0  0  0  0  0  0  0  0
  120.3872  122.9828   83.7163 C   0  0  0  0  0  0  0  0  0  0  0  0
  121.4780  123.2015   84.6685 N   0  0  0  0  0  0  0  0  0  0  0  0
  122.7942  123.5399   84.1155 C   0  0  0  0  0  0  0  0  0  0  0  0
  122.7424  124.5678   82.9804 C   0  0  0  0  0  0  0  0  0  0  0  0
  121.9835  124.0788   81.7470 C   0  0  0  0  0  0  0  0  0  0  0  0
  122.0103  125.1157   80.6343 C   0  0  0  0  0  0  0  0  0  0  0  0
  121.2113  122.9413   86.0129 C   0  0  0  0  0  0  0  0  0  0  0  0
  120.1276  123.1381   86.5554 O   0  0  0  0  0  0  0  0  0  0  0  0
  122.2893  122.4276   86.8710 C   0  0  0  0  0  0  0  0  0  0  0  0
  123.5188  122.1386   86.2692 C   0  0  0  0  0  0  0  0  0  0  0  0
  124.5839  121.6687   87.0513 C   0  0  0  0  0  0  0  0  0  0  0  0
  126.1139  121.2909   86.2399 S   0  0  0  0  0  6  0  0  0  0  0  0
  127.1941  121.6828   87.1231 O   0  0  0  0  0  0  0  0  0  0  0  0
  126.0216  119.9362   85.7446 O   0  0  0  0  0  0  0  0  0  0  0  0
  126.1481  122.3806   84.9230 N   0  0  0  0  0  0  0  0  0  0  0  0
  126.9170  123.6234   85.1461 C   0  0  0  0  0  0  0  0  0  0  0  0
  126.5178  121.7319   83.6443 C   0  0  0  0  0  0  0  0  0  0  0  0
  124.4287  121.5233   88.4328 C   0  0  0  0  0  0  0  0  0  0  0  0
  125.6645  120.9465   89.4900 Cl  0  0  0  0  0  0  0  0  0  0  0  0
  123.2005  121.8471   89.0274 C   0  0  0  0  0  0  0  0  0  0  0  0
  122.1317  122.3051   88.2522 C   0  0  0  0  0  0  0  0  0  0  0  0
  120.6519  122.6905   89.0517 Cl  0  0  0  0  0  0  0  0  0  0  0  0
  118.0108  119.6318   84.0932 H   0  0  0  0  0  0  0  0  0  0  0  0
  117.1342  119.8477   82.5403 H   0  0  0  0  0  0  0  0  0  0  0  0
  118.8257  119.2432   82.5403 H   0  0  0  0  0  0  0  0  0  0  0  0
  118.7759  121.6078   81.8887 H   0  0  0  0  0  0  0  0  0  0  0  0
  117.8780  122.0110   83.4094 H   0  0  0  0  0  0  0  0  0  0  0  0
  119.8198  121.1658   84.7288 H   0  0  0  0  0  0  0  0  0  0  0  0
  120.7166  120.9303   83.1745 H   0  0  0  0  0  0  0  0  0  0  0  0
  120.7286  123.2681   82.7103 H   0  0  0  0  0  0  0  0  0  0  0  0
  119.5293  123.5967   84.0281 H   0  0  0  0  0  0  0  0  0  0  0  0
  123.4160  123.9487   84.9255 H   0  0  0  0  0  0  0  0  0  0  0  0
  123.2108  122.6146   83.6910 H   0  0  0  0  0  0  0  0  0  0  0  0
  122.2480  125.4759   83.3558 H   0  0  0  0  0  0  0  0  0  0  0  0
  123.7801  124.7557   82.6675 H   0  0  0  0  0  0  0  0  0  0  0  0
  122.4499  123.1512   81.3837 H   0  0  0  0  0  0  0  0  0  0  0  0
  120.9357  123.9021   82.0316 H   0  0  0  0  0  0  0  0  0  0  0  0
  122.0364  126.1240   81.0732 H   0  0  0  0  0  0  0  0  0  0  0  0
  122.9048  124.9632   80.0125 H   0  0  0  0  0  0  0  0  0  0  0  0
  121.1091  125.0097   80.0125 H   0  0  0  0  0  0  0  0  0  0  0  0
  123.6497  122.2794   85.1862 H   0  0  0  0  0  0  0  0  0  0  0  0
  127.0254  123.7986   86.2267 H   0  0  0  0  0  0  0  0  0  0  0  0
  127.9127  123.5257   84.6889 H   0  0  0  0  0  0  0  0  0  0  0  0
  126.3851  124.4708   84.6889 H   0  0  0  0  0  0  0  0  0  0  0  0
  127.0528  120.7932   83.8505 H   0  0  0  0  0  0  0  0  0  0  0  0
  125.6073  121.5156   83.0662 H   0  0  0  0  0  0  0  0  0  0  0  0
  127.1679  122.4051   83.0662 H   0  0  0  0  0  0  0  0  0  0  0  0
  123.0772  121.7396   90.1151 H   0  0  0  0  0  0  0  0  0  0  0  0
  1  2  1  0
  2  3  1  0
  3  4  1  0
  4  5  1  0
  5  6  1  0
  6  7  1  0
  7  8  1  0
  8  9  1  0
  5 10  1  0
 10 11  2  0
 10 12  1  0
 12 13  2  0
 13 14  1  0
 14 15  1  0
 15 16  2  0
 15 17  2  0
 15 18  1  0
 18 19  1  0
 18 20  1  0
 14 21  2  0
 21 22  1  0
 21 23  1  0
 23 24  2  0
 24 25  1  0
 24 12  1  0
  1 26  1  0
  1 27  1  0
  1 28  1  0
  2 29  1  0
  2 30  1  0
  3 31  1  0
  3 32  1  0
  4 33  1  0
  4 34  1  0
  6 35  1  0
  6 36  1  0
  7 37  1  0
  7 38  1  0
  8 39  1  0
  8 40  1  0
  9 41  1  0
  9 42  1  0
  9 43  1  0
 13 44  1  0
 19 45  1  0
 19 46  1  0
 19 47  1  0
 20 48  1  0
 20 49  1  0
 20 50  1  0
 23 51  1  0
M  END
>  <loss>  (8) 
0.4750940501689911

>  <score>  (8) 
4.361189365386963

$$$$
CMEGSHYBGCJHDV-UHFFFAOYSA-N
     RDKit          3D

 51 51  0  0  0  0  0  0  0  0999 V2000
  119.5602  120.1388   81.9500 C   0  0  0  0  0  0  0  0  0  0  0  0
  120.2355  121.4899   82.1224 C   0  0  0  0  0  0  0  0  0  0  0  0
  119.8266  122.1563   83.4348 C   0  0  0  0  0  0  0  0  0  0  0  0
  120.7195  123.3578   83.7498 C   0  0  0  0  0  0  0  0  0  0  0  0
  121.1561  123.3483   85.1464 N   0  0  0  0  0  0  0  0  0  0  0  0
  121.2737  124.6464   85.8217 C   0  0  0  0  0  0  0  0  0  0  0  0
  122.2293  125.5827   85.0782 C   0  0  0  0  0  0  0  0  0  0  0  0
  121.5084  126.6756   84.2878 C   0  0  0  0  0  0  0  0  0  0  0  0
  122.0043  126.8144   82.8569 C   0  0  0  0  0  0  0  0  0  0  0  0
  121.4086  122.1136   85.7380 C   0  0  0  0  0  0  0  0  0  0  0  0
  120.8023  121.0772   85.4810 O   0  0  0  0  0  0  0  0  0  0  0  0
  122.5011  122.0041   86.7148 C   0  0  0  0  0  0  0  0  0  0  0  0
  123.7586  121.6135   86.2448 C   0  0  0  0  0  0  0  0  0  0  0  0
  124.8265  121.4352   87.1419 C   0  0  0  0  0  0  0  0  0  0  0  0
  126.4046  121.0074   86.4323 S   0  0  0  0  0  6  0  0  0  0  0  0
  126.3471  119.6538   85.9311 O   0  0  0  0  0  0  0  0  0  0  0  0
  127.4039  121.3636   87.4205 O   0  0  0  0  0  0  0  0  0  0  0  0
  126.5687  122.0826   85.1295 N   0  0  0  0  0  0  0  0  0  0  0  0
  125.6313  121.9496   84.0040 C   0  0  0  0  0  0  0  0  0  0  0  0
  126.9173  123.4797   85.4398 C   0  0  0  0  0  0  0  0  0  0  0  0
  124.6252  121.6607   88.5069 C   0  0  0  0  0  0  0  0  0  0  0  0
  125.8260  121.4695   89.7295 Cl  0  0  0  0  0  0  0  0  0  0  0  0
  123.3525  122.0408   88.9655 C   0  0  0  0  0  0  0  0  0  0  0  0
  122.2881  122.2065   88.0765 C   0  0  0  0  0  0  0  0  0  0  0  0
  120.7540  122.6702   88.7132 Cl  0  0  0  0  0  0  0  0  0  0  0  0
  119.3448  119.7077   82.9388 H   0  0  0  0  0  0  0  0  0  0  0  0
  118.6203  120.2670   81.3932 H   0  0  0  0  0  0  0  0  0  0  0  0
  120.2270  119.4640   81.3932 H   0  0  0  0  0  0  0  0  0  0  0  0
  121.3262  121.3475   82.1184 H   0  0  0  0  0  0  0  0  0  0  0  0
  119.9227  122.1407   81.2926 H   0  0  0  0  0  0  0  0  0  0  0  0
  118.7836  122.4963   83.3543 H   0  0  0  0  0  0  0  0  0  0  0  0
  119.9347  121.4212   84.2460 H   0  0  0  0  0  0  0  0  0  0  0  0
  121.6050  123.3260   83.0980 H   0  0  0  0  0  0  0  0  0  0  0  0
  120.1385  124.2754   83.5755 H   0  0  0  0  0  0  0  0  0  0  0  0
  120.2798  125.1153   85.8699 H   0  0  0  0  0  0  0  0  0  0  0  0
  121.6757  124.4745   86.8311 H   0  0  0  0  0  0  0  0  0  0  0  0
  122.8917  126.0623   85.8138 H   0  0  0  0  0  0  0  0  0  0  0  0
  122.7891  124.9714   84.3550 H   0  0  0  0  0  0  0  0  0  0  0  0
  120.4348  126.4372   84.2630 H   0  0  0  0  0  0  0  0  0  0  0  0
  121.7112  127.6303   84.7953 H   0  0  0  0  0  0  0  0  0  0  0  0
  123.0636  127.1108   82.8630 H   0  0  0  0  0  0  0  0  0  0  0  0
  121.8959  125.8514   82.3363 H   0  0  0  0  0  0  0  0  0  0  0  0
  121.4119  127.5813   82.3363 H   0  0  0  0  0  0  0  0  0  0  0  0
  123.9131  121.4449   85.1688 H   0  0  0  0  0  0  0  0  0  0  0  0
  124.6118  121.8049   84.3910 H   0  0  0  0  0  0  0  0  0  0  0  0
  125.6643  122.8614   83.3896 H   0  0  0  0  0  0  0  0  0  0  0  0
  125.9166  121.0830   83.3896 H   0  0  0  0  0  0  0  0  0  0  0  0
  126.9512  123.6155   86.5309 H   0  0  0  0  0  0  0  0  0  0  0  0
  127.9020  123.7161   85.0102 H   0  0  0  0  0  0  0  0  0  0  0  0
  126.1591  124.1509   85.0102 H   0  0  0  0  0  0  0  0  0  0  0  0
  123.1921  122.2104   90.0405 H   0  0  0  0  0  0  0  0  0  0  0  0
  1  2  1  0
  2  3  1  0
  3  4  1  0
  4  5  1  0
  5  6  1  0
  6  7  1  0
  7  8  1  0
  8  9  1  0
  5 10  1  0
 10 11  2  0
 10 12  1  0
 12 13  2  0
 13 14  1  0
 14 15  1  0
 15 16  2  0
 15 17  2  0
 15 18  1  0
 18 19  1  0
 18 20  1  0
 14 21  2  0
 21 22  1  0
 21 23  1  0
 23 24  2  0
 24 25  1  0
 24 12  1  0
  1 26  1  0
  1 27  1  0
  1 28  1  0
  2 29  1  0
  2 30  1  0
  3 31  1  0
  3 32  1  0
  4 33  1  0
  4 34  1  0
  6 35  1  0
  6 36  1  0
  7 37  1  0
  7 38  1  0
  8 39  1  0
  8 40  1  0
  9 41  1  0
  9 42  1  0
  9 43  1  0
 13 44  1  0
 19 45  1  0
 19 46  1  0
 19 47  1  0
 20 48  1  0
 20 49  1  0
 20 50  1  0
 23 51  1  0
M  END
>  <loss>  (9) 
0.5351405739784241

>  <score>  (9) 
4.646488666534424

$$$$
CMEGSHYBGCJHDV-UHFFFAOYSA-N
     RDKit          3D

 51 51  0  0  0  0  0  0  0  0999 V2000
  118.0460  122.5472   82.4490 C   0  0  0  0  0  0  0  0  0  0  0  0
  118.5024  122.7189   83.8905 C   0  0  0  0  0  0  0  0  0  0  0  0
  118.9752  121.4105   84.5282 C   0  0  0  0  0  0  0  0  0  0  0  0
  120.5000  121.2538   84.6084 C   0  0  0  0  0  0  0  0  0  0  0  0
  121.2195  122.5346   84.6919 N   0  0  0  0  0  0  0  0  0  0  0  0
  121.4507  123.2610   83.4389 C   0  0  0  0  0  0  0  0  0  0  0  0
  122.4403  124.4149   83.6286 C   0  0  0  0  0  0  0  0  0  0  0  0
  122.4409  125.4074   82.4648 C   0  0  0  0  0  0  0  0  0  0  0  0
  123.0269  124.8369   81.1826 C   0  0  0  0  0  0  0  0  0  0  0  0
  121.5565  123.2000   85.8711 C   0  0  0  0  0  0  0  0  0  0  0  0
  121.1495  124.3187   86.1767 O   0  0  0  0  0  0  0  0  0  0  0  0
  122.4806  122.5704   86.8240 C   0  0  0  0  0  0  0  0  0  0  0  0
  123.7804  122.3014   86.3825 C   0  0  0  0  0  0  0  0  0  0  0  0
  124.7149  121.7436   87.2665 C   0  0  0  0  0  0  0  0  0  0  0  0
  126.3295  121.3613   86.6436 S   0  0  0  0  0  6  0  0  0  0  0  0
  127.2889  121.8139   87.6263 O   0  0  0  0  0  0  0  0  0  0  0  0
  126.3245  119.9779   86.2121 O   0  0  0  0  0  0  0  0  0  0  0  0
  126.4542  122.3178   85.2351 N   0  0  0  0  0  0  0  0  0  0  0  0
  125.8306  121.7448   84.0216 C   0  0  0  0  0  0  0  0  0  0  0  0
  127.8335  122.7848   84.9698 C   0  0  0  0  0  0  0  0  0  0  0  0
  124.3554  121.4756   88.5903 C   0  0  0  0  0  0  0  0  0  0  0  0
  125.4254  120.8069   89.7672 Cl  0  0  0  0  0  0  0  0  0  0  0  0
  123.0572  121.7761   89.0274 C   0  0  0  0  0  0  0  0  0  0  0  0
  122.1202  122.3298   88.1509 C   0  0  0  0  0  0  0  0  0  0  0  0
  120.5480  122.6923   88.7624 Cl  0  0  0  0  0  0  0  0  0  0  0  0
  117.0165  122.1600   82.4340 H   0  0  0  0  0  0  0  0  0  0  0  0
  118.0796  123.5194   81.9355 H   0  0  0  0  0  0  0  0  0  0  0  0
  118.7119  121.8381   81.9355 H   0  0  0  0  0  0  0  0  0  0  0  0
  119.3334  123.4394   83.9115 H   0  0  0  0  0  0  0  0  0  0  0  0
  117.6368  123.0731   84.4696 H   0  0  0  0  0  0  0  0  0  0  0  0
  118.5709  121.3611   85.5500 H   0  0  0  0  0  0  0  0  0  0  0  0
  118.6118  120.5988   83.8809 H   0  0  0  0  0  0  0  0  0  0  0  0
  120.7422  120.6598   85.5020 H   0  0  0  0  0  0  0  0  0  0  0  0
  120.8234  120.7617   83.6792 H   0  0  0  0  0  0  0  0  0  0  0  0
  121.8556  122.5630   82.6913 H   0  0  0  0  0  0  0  0  0  0  0  0
  120.4913  123.6828   83.1045 H   0  0  0  0  0  0  0  0  0  0  0  0
  122.1742  124.9557   84.5488 H   0  0  0  0  0  0  0  0  0  0  0  0
  123.4473  123.9755   83.6833 H   0  0  0  0  0  0  0  0  0  0  0  0
  121.4029  125.7134   82.2675 H   0  0  0  0  0  0  0  0  0  0  0  0
  123.0758  126.2550   82.7622 H   0  0  0  0  0  0  0  0  0  0  0  0
  123.7947  124.0895   81.4312 H   0  0  0  0  0  0  0  0  0  0  0  0
  122.2284  124.3608   80.5946 H   0  0  0  0  0  0  0  0  0  0  0  0
  123.4814  125.6479   80.5946 H   0  0  0  0  0  0  0  0  0  0  0  0
  124.0684  122.5266   85.3451 H   0  0  0  0  0  0  0  0  0  0  0  0
  125.0498  121.0274   84.3144 H   0  0  0  0  0  0  0  0  0  0  0  0
  125.3815  122.5519   83.4241 H   0  0  0  0  0  0  0  0  0  0  0  0
  126.5969  121.2291   83.4241 H   0  0  0  0  0  0  0  0  0  0  0  0
  128.3513  122.9602   85.9244 H   0  0  0  0  0  0  0  0  0  0  0  0
  128.3753  122.0200   84.3939 H   0  0  0  0  0  0  0  0  0  0  0  0
  127.7991  123.7214   84.3939 H   0  0  0  0  0  0  0  0  0  0  0  0
  122.7736  121.5740   90.0708 H   0  0  0  0  0  0  0  0  0  0  0  0
  1  2  1  0
  2  3  1  0
  3  4  1  0
  4  5  1  0
  5  6  1  0
  6  7  1  0
  7  8  1  0
  8  9  1  0
  5 10  1  0
 10 11  2  0
 10 12  1  0
 12 13  2  0
 13 14  1  0
 14 15  1  0
 15 16  2  0
 15 17  2  0
 15 18  1  0
 18 19  1  0
 18 20  1  0
 14 21  2  0
 21 22  1  0
 21 23  1  0
 23 24  2  0
 24 25  1  0
 24 12  1  0
  1 26  1  0
  1 27  1  0
  1 28  1  0
  2 29  1  0
  2 30  1  0
  3 31  1  0
  3 32  1  0
  4 33  1  0
  4 34  1  0
  6 35  1  0
  6 36  1  0
  7 37  1  0
  7 38  1  0
  8 39  1  0
  8 40  1  0
  9 41  1  0
  9 42  1  0
  9 43  1  0
 13 44  1  0
 19 45  1  0
 19 46  1  0
 19 47  1  0
 20 48  1  0
 20 49  1  0
 20 50  1  0
 23 51  1  0
M  END
>  <loss>  (10) 
0.48190072178840637

>  <score>  (10) 
4.310118198394775

$$$$
CMEGSHYBGCJHDV-UHFFFAOYSA-N
     RDKit          3D

 51 51  0  0  0  0  0  0  0  0999 V2000
  118.8084  120.9682   81.4201 C   0  0  0  0  0  0  0  0  0  0  0  0
  118.8380  121.8926   82.6285 C   0  0  0  0  0  0  0  0  0  0  0  0
  119.0371  121.1450   83.9490 C   0  0  0  0  0  0  0  0  0  0  0  0
  120.4743  121.1716   84.4873 C   0  0  0  0  0  0  0  0  0  0  0  0
  121.0524  122.5230   84.5546 N   0  0  0  0  0  0  0  0  0  0  0  0
  121.0972  123.2999   83.3113 C   0  0  0  0  0  0  0  0  0  0  0  0
  121.6997  124.6905   83.5349 C   0  0  0  0  0  0  0  0  0  0  0  0
  121.4230  125.6605   82.3852 C   0  0  0  0  0  0  0  0  0  0  0  0
  121.8953  125.1479   81.0334 C   0  0  0  0  0  0  0  0  0  0  0  0
  121.4105  123.1946   85.7241 C   0  0  0  0  0  0  0  0  0  0  0  0
  120.9790  124.2983   86.0498 O   0  0  0  0  0  0  0  0  0  0  0  0
  122.3885  122.5917   86.6397 C   0  0  0  0  0  0  0  0  0  0  0  0
  123.6687  122.3328   86.1391 C   0  0  0  0  0  0  0  0  0  0  0  0
  124.6529  121.8008   86.9843 C   0  0  0  0  0  0  0  0  0  0  0  0
  126.2403  121.4301   86.2887 S   0  0  0  0  0  6  0  0  0  0  0  0
  127.2358  122.0615   87.1260 O   0  0  0  0  0  0  0  0  0  0  0  0
  126.2952  120.0036   86.0392 O   0  0  0  0  0  0  0  0  0  0  0  0
  126.2006  122.1971   84.7642 N   0  0  0  0  0  0  0  0  0  0  0  0
  126.6345  121.3621   83.6221 C   0  0  0  0  0  0  0  0  0  0  0  0
  126.8712  123.5167   84.7597 C   0  0  0  0  0  0  0  0  0  0  0  0
  124.3620  121.5483   88.3279 C   0  0  0  0  0  0  0  0  0  0  0  0
  125.4972  120.9116   89.4607 Cl  0  0  0  0  0  0  0  0  0  0  0  0
  123.0826  121.8386   88.8236 C   0  0  0  0  0  0  0  0  0  0  0  0
  122.0965  122.3667   87.9860 C   0  0  0  0  0  0  0  0  0  0  0  0
  120.5512  122.7180   88.6684 Cl  0  0  0  0  0  0  0  0  0  0  0  0
  118.7750  119.9223   81.7593 H   0  0  0  0  0  0  0  0  0  0  0  0
  117.9168  121.1857   80.8138 H   0  0  0  0  0  0  0  0  0  0  0  0
  119.7122  121.1284   80.8138 H   0  0  0  0  0  0  0  0  0  0  0  0
  119.6642  122.6077   82.5026 H   0  0  0  0  0  0  0  0  0  0  0  0
  117.8620  122.3974   82.6804 H   0  0  0  0  0  0  0  0  0  0  0  0
  118.3794  121.6005   84.7038 H   0  0  0  0  0  0  0  0  0  0  0  0
  118.7983  120.0900   83.7492 H   0  0  0  0  0  0  0  0  0  0  0  0
  120.4744  120.7424   85.5001 H   0  0  0  0  0  0  0  0  0  0  0  0
  121.0923  120.5905   83.7870 H   0  0  0  0  0  0  0  0  0  0  0  0
  121.7103  122.7596   82.5750 H   0  0  0  0  0  0  0  0  0  0  0  0
  120.0666  123.4265   82.9482 H   0  0  0  0  0  0  0  0  0  0  0  0
  121.2737  125.1116   84.4575 H   0  0  0  0  0  0  0  0  0  0  0  0
  122.7907  124.5665   83.6019 H   0  0  0  0  0  0  0  0  0  0  0  0
  120.3385  125.8366   82.3314 H   0  0  0  0  0  0  0  0  0  0  0  0
  121.9849  126.5822   82.5965 H   0  0  0  0  0  0  0  0  0  0  0  0
  122.6337  124.3464   81.1828 H   0  0  0  0  0  0  0  0  0  0  0  0
  121.0363  124.7547   80.4699 H   0  0  0  0  0  0  0  0  0  0  0  0
  122.3573  125.9718   80.4699 H   0  0  0  0  0  0  0  0  0  0  0  0
  123.9027  122.5460   85.0856 H   0  0  0  0  0  0  0  0  0  0  0  0
  127.1110  120.4450   83.9986 H   0  0  0  0  0  0  0  0  0  0  0  0
  125.7605  121.0962   83.0094 H   0  0  0  0  0  0  0  0  0  0  0  0
  127.3544  121.9245   83.0094 H   0  0  0  0  0  0  0  0  0  0  0  0
  127.0387  123.8464   85.7957 H   0  0  0  0  0  0  0  0  0  0  0  0
  127.8373  123.4354   84.2401 H   0  0  0  0  0  0  0  0  0  0  0  0
  126.2359  124.2491   84.2401 H   0  0  0  0  0  0  0  0  0  0  0  0
  122.8531  121.6487   89.8824 H   0  0  0  0  0  0  0  0  0  0  0  0
  1  2  1  0
  2  3  1  0
  3  4  1  0
  4  5  1  0
  5  6  1  0
  6  7  1  0
  7  8  1  0
  8  9  1  0
  5 10  1  0
 10 11  2  0
 10 12  1  0
 12 13  2  0
 13 14  1  0
 14 15  1  0
 15 16  2  0
 15 17  2  0
 15 18  1  0
 18 19  1  0
 18 20  1  0
 14 21  2  0
 21 22  1  0
 21 23  1  0
 23 24  2  0
 24 25  1  0
 24 12  1  0
  1 26  1  0
  1 27  1  0
  1 28  1  0
  2 29  1  0
  2 30  1  0
  3 31  1  0
  3 32  1  0
  4 33  1  0
  4 34  1  0
  6 35  1  0
  6 36  1  0
  7 37  1  0
  7 38  1  0
  8 39  1  0
  8 40  1  0
  9 41  1  0
  9 42  1  0
  9 43  1  0
 13 44  1  0
 19 45  1  0
 19 46  1  0
 19 47  1  0
 20 48  1  0
 20 49  1  0
 20 50  1  0
 23 51  1  0
M  END
>  <loss>  (11) 
0.46066921949386597

>  <score>  (11) 
4.161331653594971

$$$$
CMEGSHYBGCJHDV-UHFFFAOYSA-N
     RDKit          3D

 51 51  0  0  0  0  0  0  0  0999 V2000
  123.3445  125.4897   80.7377 C   0  0  0  0  0  0  0  0  0  0  0  0
  122.8328  124.3721   81.6335 C   0  0  0  0  0  0  0  0  0  0  0  0
  123.3621  124.5154   83.0603 C   0  0  0  0  0  0  0  0  0  0  0  0
  123.1145  123.2810   83.9318 C   0  0  0  0  0  0  0  0  0  0  0  0
  121.7501  123.1839   84.4655 N   0  0  0  0  0  0  0  0  0  0  0  0
  120.6484  123.3070   83.5072 C   0  0  0  0  0  0  0  0  0  0  0  0
  119.9521  121.9631   83.2776 C   0  0  0  0  0  0  0  0  0  0  0  0
  118.5765  122.0998   82.6235 C   0  0  0  0  0  0  0  0  0  0  0  0
  118.6072  122.8486   81.3001 C   0  0  0  0  0  0  0  0  0  0  0  0
  121.4176  122.8809   85.7849 C   0  0  0  0  0  0  0  0  0  0  0  0
  120.2737  122.8891   86.2327 O   0  0  0  0  0  0  0  0  0  0  0  0
  122.4762  122.4689   86.7178 C   0  0  0  0  0  0  0  0  0  0  0  0
  123.7157  122.0997   86.1841 C   0  0  0  0  0  0  0  0  0  0  0  0
  124.7374  121.6228   87.0245 C   0  0  0  0  0  0  0  0  0  0  0  0
  126.3002  121.2504   86.2523 S   0  0  0  0  0  6  0  0  0  0  0  0
  126.3725  119.8318   85.9901 O   0  0  0  0  0  0  0  0  0  0  0  0
  127.3167  121.8805   87.0722 O   0  0  0  0  0  0  0  0  0  0  0  0
  126.2380  122.0930   84.7806 N   0  0  0  0  0  0  0  0  0  0  0  0
  124.9473  122.1613   84.0787 C   0  0  0  0  0  0  0  0  0  0  0  0
  127.0316  123.3286   84.6689 C   0  0  0  0  0  0  0  0  0  0  0  0
  124.5097  121.5263   88.4002 C   0  0  0  0  0  0  0  0  0  0  0  0
  125.6542  120.9529   89.5552 Cl  0  0  0  0  0  0  0  0  0  0  0  0
  123.2535  121.8810   88.9195 C   0  0  0  0  0  0  0  0  0  0  0  0
  122.2329  122.3410   88.0837 C   0  0  0  0  0  0  0  0  0  0  0  0
  120.7158  122.7466   88.7977 Cl  0  0  0  0  0  0  0  0  0  0  0  0
  123.7221  126.3145   81.3599 H   0  0  0  0  0  0  0  0  0  0  0  0
  124.1573  125.1076   80.1027 H   0  0  0  0  0  0  0  0  0  0  0  0
  122.5241  125.8553   80.1027 H   0  0  0  0  0  0  0  0  0  0  0  0
  121.7335  124.4049   81.6545 H   0  0  0  0  0  0  0  0  0  0  0  0
  123.1865  123.4129   81.2273 H   0  0  0  0  0  0  0  0  0  0  0  0
  124.4462  124.6960   83.0127 H   0  0  0  0  0  0  0  0  0  0  0  0
  122.8191  125.3522   83.5237 H   0  0  0  0  0  0  0  0  0  0  0  0
  123.3119  122.3851   83.3248 H   0  0  0  0  0  0  0  0  0  0  0  0
  123.7871  123.3660   84.7981 H   0  0  0  0  0  0  0  0  0  0  0  0
  119.9145  124.0278   83.8969 H   0  0  0  0  0  0  0  0  0  0  0  0
  121.0623  123.6497   82.5475 H   0  0  0  0  0  0  0  0  0  0  0  0
  120.5890  121.3465   82.6263 H   0  0  0  0  0  0  0  0  0  0  0  0
  119.7997  121.5018   84.2645 H   0  0  0  0  0  0  0  0  0  0  0  0
  118.1742  121.0918   82.4442 H   0  0  0  0  0  0  0  0  0  0  0  0
  117.9469  122.6831   83.3115 H   0  0  0  0  0  0  0  0  0  0  0  0
  118.6516  123.9308   81.4921 H   0  0  0  0  0  0  0  0  0  0  0  0
  119.4935  122.5414   80.7255 H   0  0  0  0  0  0  0  0  0  0  0  0
  117.6987  122.6151   80.7255 H   0  0  0  0  0  0  0  0  0  0  0  0
  123.8919  122.1828   85.1015 H   0  0  0  0  0  0  0  0  0  0  0  0
  124.1312  122.2044   84.8150 H   0  0  0  0  0  0  0  0  0  0  0  0
  124.9201  123.0621   83.4480 H   0  0  0  0  0  0  0  0  0  0  0  0
  124.8252  121.2683   83.4480 H   0  0  0  0  0  0  0  0  0  0  0  0
  127.2717  123.7025   85.6752 H   0  0  0  0  0  0  0  0  0  0  0  0
  127.9637  123.1178   84.1240 H   0  0  0  0  0  0  0  0  0  0  0  0
  126.4523  124.0885   84.1240 H   0  0  0  0  0  0  0  0  0  0  0  0
  123.0706  121.7953   90.0008 H   0  0  0  0  0  0  0  0  0  0  0  0
  1  2  1  0
  2  3  1  0
  3  4  1  0
  4  5  1  0
  5  6  1  0
  6  7  1  0
  7  8  1  0
  8  9  1  0
  5 10  1  0
 10 11  2  0
 10 12  1  0
 12 13  2  0
 13 14  1  0
 14 15  1  0
 15 16  2  0
 15 17  2  0
 15 18  1  0
 18 19  1  0
 18 20  1  0
 14 21  2  0
 21 22  1  0
 21 23  1  0
 23 24  2  0
 24 25  1  0
 24 12  1  0
  1 26  1  0
  1 27  1  0
  1 28  1  0
  2 29  1  0
  2 30  1  0
  3 31  1  0
  3 32  1  0
  4 33  1  0
  4 34  1  0
  6 35  1  0
  6 36  1  0
  7 37  1  0
  7 38  1  0
  8 39  1  0
  8 40  1  0
  9 41  1  0
  9 42  1  0
  9 43  1  0
 13 44  1  0
 19 45  1  0
 19 46  1  0
 19 47  1  0
 20 48  1  0
 20 49  1  0
 20 50  1  0
 23 51  1  0
M  END
>  <loss>  (12) 
0.5116414427757263

>  <score>  (12) 
4.386154651641846

$$$$
CMEGSHYBGCJHDV-UHFFFAOYSA-N
     RDKit          3D

 51 51  0  0  0  0  0  0  0  0999 V2000
  120.8703  127.1466   82.4804 C   0  0  0  0  0  0  0  0  0  0  0  0
  121.3791  125.7316   82.7085 C   0  0  0  0  0  0  0  0  0  0  0  0
  122.1993  125.6352   83.9948 C   0  0  0  0  0  0  0  0  0  0  0  0
  122.7674  124.2372   84.2551 C   0  0  0  0  0  0  0  0  0  0  0  0
  121.7484  123.1898   84.3990 N   0  0  0  0  0  0  0  0  0  0  0  0
  121.1041  122.7126   83.1725 C   0  0  0  0  0  0  0  0  0  0  0  0
  121.6049  121.3199   82.7814 C   0  0  0  0  0  0  0  0  0  0  0  0
  120.9602  120.7836   81.5024 C   0  0  0  0  0  0  0  0  0  0  0  0
  121.3426  121.5680   80.2569 C   0  0  0  0  0  0  0  0  0  0  0  0
  121.4191  122.5401   85.5875 C   0  0  0  0  0  0  0  0  0  0  0  0
  120.2978  122.1201   85.8621 O   0  0  0  0  0  0  0  0  0  0  0  0
  122.4714  122.2763   86.5794 C   0  0  0  0  0  0  0  0  0  0  0  0
  123.7222  121.8557   86.1148 C   0  0  0  0  0  0  0  0  0  0  0  0
  124.7397  121.5144   87.0237 C   0  0  0  0  0  0  0  0  0  0  0  0
  126.3168  121.0625   86.3267 S   0  0  0  0  0  6  0  0  0  0  0  0
  126.1576  119.8681   85.5303 O   0  0  0  0  0  0  0  0  0  0  0  0
  127.2620  121.0701   87.4263 O   0  0  0  0  0  0  0  0  0  0  0  0
  126.7031  122.3679   85.3137 N   0  0  0  0  0  0  0  0  0  0  0  0
  125.7588  122.7105   84.2392 C   0  0  0  0  0  0  0  0  0  0  0  0
  127.3402  123.5438   85.9305 C   0  0  0  0  0  0  0  0  0  0  0  0
  124.4961  121.6048   88.3971 C   0  0  0  0  0  0  0  0  0  0  0  0
  125.6335  121.2131   89.6321 Cl  0  0  0  0  0  0  0  0  0  0  0  0
  123.2288  122.0089   88.8492 C   0  0  0  0  0  0  0  0  0  0  0  0
  122.2127  122.3341   87.9472 C   0  0  0  0  0  0  0  0  0  0  0  0
  120.6815  122.8114   88.5825 Cl  0  0  0  0  0  0  0  0  0  0  0  0
  120.6950  127.6341   83.4508 H   0  0  0  0  0  0  0  0  0  0  0  0
  121.6191  127.7185   81.9128 H   0  0  0  0  0  0  0  0  0  0  0  0
  119.9288  127.1107   81.9128 H   0  0  0  0  0  0  0  0  0  0  0  0
  120.5193  125.0492   82.7802 H   0  0  0  0  0  0  0  0  0  0  0  0
  122.0265  125.4556   81.8631 H   0  0  0  0  0  0  0  0  0  0  0  0
  123.0375  126.3443   83.9269 H   0  0  0  0  0  0  0  0  0  0  0  0
  121.5210  125.8687   84.8287 H   0  0  0  0  0  0  0  0  0  0  0  0
  123.4215  123.9685   83.4125 H   0  0  0  0  0  0  0  0  0  0  0  0
  123.3052  124.2884   85.2133 H   0  0  0  0  0  0  0  0  0  0  0  0
  120.0168  122.6694   83.3335 H   0  0  0  0  0  0  0  0  0  0  0  0
  121.3520  123.4098   82.3586 H   0  0  0  0  0  0  0  0  0  0  0  0
  122.6932  121.3699   82.6296 H   0  0  0  0  0  0  0  0  0  0  0  0
  121.3317  120.6341   83.5969 H   0  0  0  0  0  0  0  0  0  0  0  0
  121.2741  119.7382   81.3659 H   0  0  0  0  0  0  0  0  0  0  0  0
  119.8710  120.8789   81.6239 H   0  0  0  0  0  0  0  0  0  0  0  0
  121.8069  122.5206   80.5517 H   0  0  0  0  0  0  0  0  0  0  0  0
  122.0560  120.9819   79.6590 H   0  0  0  0  0  0  0  0  0  0  0  0
  120.4413  121.7690   79.6590 H   0  0  0  0  0  0  0  0  0  0  0  0
  123.9109  121.7915   85.0330 H   0  0  0  0  0  0  0  0  0  0  0  0
  124.8112  123.0542   84.6797 H   0  0  0  0  0  0  0  0  0  0  0  0
  126.1858  123.5110   83.6173 H   0  0  0  0  0  0  0  0  0  0  0  0
  125.5732  121.8224   83.6173 H   0  0  0  0  0  0  0  0  0  0  0  0
  127.2919  123.4547   87.0259 H   0  0  0  0  0  0  0  0  0  0  0  0
  128.3920  123.5997   85.6132 H   0  0  0  0  0  0  0  0  0  0  0  0
  126.8126  124.4554   85.6132 H   0  0  0  0  0  0  0  0  0  0  0  0
  123.0336  122.0701   89.9300 H   0  0  0  0  0  0  0  0  0  0  0  0
  1  2  1  0
  2  3  1  0
  3  4  1  0
  4  5  1  0
  5  6  1  0
  6  7  1  0
  7  8  1  0
  8  9  1  0
  5 10  1  0
 10 11  2  0
 10 12  1  0
 12 13  2  0
 13 14  1  0
 14 15  1  0
 15 16  2  0
 15 17  2  0
 15 18  1  0
 18 19  1  0
 18 20  1  0
 14 21  2  0
 21 22  1  0
 21 23  1  0
 23 24  2  0
 24 25  1  0
 24 12  1  0
  1 26  1  0
  1 27  1  0
  1 28  1  0
  2 29  1  0
  2 30  1  0
  3 31  1  0
  3 32  1  0
  4 33  1  0
  4 34  1  0
  6 35  1  0
  6 36  1  0
  7 37  1  0
  7 38  1  0
  8 39  1  0
  8 40  1  0
  9 41  1  0
  9 42  1  0
  9 43  1  0
 13 44  1  0
 19 45  1  0
 19 46  1  0
 19 47  1  0
 20 48  1  0
 20 49  1  0
 20 50  1  0
 23 51  1  0
M  END
>  <loss>  (13) 
0.4915353059768677

>  <score>  (13) 
4.270790100097656

$$$$
CMEGSHYBGCJHDV-UHFFFAOYSA-N
     RDKit          3D

 51 51  0  0  0  0  0  0  0  0999 V2000
  122.7451  120.6034   80.4923 C   0  0  0  0  0  0  0  0  0  0  0  0
  121.7158  121.3352   81.3411 C   0  0  0  0  0  0  0  0  0  0  0  0
  121.3037  120.5517   82.5895 C   0  0  0  0  0  0  0  0  0  0  0  0
  121.8690  121.1037   83.9054 C   0  0  0  0  0  0  0  0  0  0  0  0
  121.3497  122.4350   84.2562 N   0  0  0  0  0  0  0  0  0  0  0  0
  120.3856  123.0468   83.3356 C   0  0  0  0  0  0  0  0  0  0  0  0
  119.3791  123.9321   84.0772 C   0  0  0  0  0  0  0  0  0  0  0  0
  119.0211  125.2087   83.3146 C   0  0  0  0  0  0  0  0  0  0  0  0
  120.2322  126.0444   82.9303 C   0  0  0  0  0  0  0  0  0  0  0  0
  121.5647  123.0964   85.4660 C   0  0  0  0  0  0  0  0  0  0  0  0
  121.0236  124.1530   85.7843 O   0  0  0  0  0  0  0  0  0  0  0  0
  122.5161  122.5434   86.4391 C   0  0  0  0  0  0  0  0  0  0  0  0
  123.8441  122.3874   86.0281 C   0  0  0  0  0  0  0  0  0  0  0  0
  124.8016  121.9072   86.9329 C   0  0  0  0  0  0  0  0  0  0  0  0
  126.4570  121.6660   86.3477 S   0  0  0  0  0  6  0  0  0  0  0  0
  127.3524  122.1140   87.3909 O   0  0  0  0  0  0  0  0  0  0  0  0
  126.5550  120.3150   85.8326 O   0  0  0  0  0  0  0  0  0  0  0  0
  126.5664  122.7155   85.0059 N   0  0  0  0  0  0  0  0  0  0  0  0
  125.8770  122.2533   83.7808 C   0  0  0  0  0  0  0  0  0  0  0  0
  127.9520  123.1507   84.7197 C   0  0  0  0  0  0  0  0  0  0  0  0
  124.4350  121.6039   88.2471 C   0  0  0  0  0  0  0  0  0  0  0  0
  125.5300  121.0234   89.4477 Cl  0  0  0  0  0  0  0  0  0  0  0  0
  123.1060  121.7914   88.6538 C   0  0  0  0  0  0  0  0  0  0  0  0
  122.1463  122.2674   87.7565 C   0  0  0  0  0  0  0  0  0  0  0  0
  120.5350  122.4925   88.3312 Cl  0  0  0  0  0  0  0  0  0  0  0  0
  123.4646  120.0918   81.1485 H   0  0  0  0  0  0  0  0  0  0  0  0
  122.2369  119.8627   79.8574 H   0  0  0  0  0  0  0  0  0  0  0  0
  123.2778  121.3266   79.8574 H   0  0  0  0  0  0  0  0  0  0  0  0
  122.1430  122.2983   81.6571 H   0  0  0  0  0  0  0  0  0  0  0  0
  120.8150  121.4680   80.7239 H   0  0  0  0  0  0  0  0  0  0  0  0
  120.2057  120.5642   82.6556 H   0  0  0  0  0  0  0  0  0  0  0  0
  121.7171  119.5390   82.4728 H   0  0  0  0  0  0  0  0  0  0  0  0
  121.6110  120.4052   84.7150 H   0  0  0  0  0  0  0  0  0  0  0  0
  122.9561  121.2060   83.7721 H   0  0  0  0  0  0  0  0  0  0  0  0
  120.9311  123.6619   82.6048 H   0  0  0  0  0  0  0  0  0  0  0  0
  119.8299  122.2405   82.8346 H   0  0  0  0  0  0  0  0  0  0  0  0
  118.4583  123.3530   84.2407 H   0  0  0  0  0  0  0  0  0  0  0  0
  119.8490  124.2383   85.0236 H   0  0  0  0  0  0  0  0  0  0  0  0
  118.4864  124.9270   82.3955 H   0  0  0  0  0  0  0  0  0  0  0  0
  118.4024  125.8237   83.9847 H   0  0  0  0  0  0  0  0  0  0  0  0
  120.7398  126.3948   83.8411 H   0  0  0  0  0  0  0  0  0  0  0  0
  120.9264  125.4323   82.3360 H   0  0  0  0  0  0  0  0  0  0  0  0
  119.9062  126.9107   82.3360 H   0  0  0  0  0  0  0  0  0  0  0  0
  124.1363  122.6408   84.9984 H   0  0  0  0  0  0  0  0  0  0  0  0
  124.9929  121.6607   84.0589 H   0  0  0  0  0  0  0  0  0  0  0  0
  125.5626  123.1239   83.1864 H   0  0  0  0  0  0  0  0  0  0  0  0
  126.5628  121.6318   83.1864 H   0  0  0  0  0  0  0  0  0  0  0  0
  128.4865  123.3187   85.6663 H   0  0  0  0  0  0  0  0  0  0  0  0
  128.4687  122.3717   84.1400 H   0  0  0  0  0  0  0  0  0  0  0  0
  127.9304  124.0854   84.1400 H   0  0  0  0  0  0  0  0  0  0  0  0
  122.8161  121.5615   89.6897 H   0  0  0  0  0  0  0  0  0  0  0  0
  1  2  1  0
  2  3  1  0
  3  4  1  0
  4  5  1  0
  5  6  1  0
  6  7  1  0
  7  8  1  0
  8  9  1  0
  5 10  1  0
 10 11  2  0
 10 12  1  0
 12 13  2  0
 13 14  1  0
 14 15  1  0
 15 16  2  0
 15 17  2  0
 15 18  1  0
 18 19  1  0
 18 20  1  0
 14 21  2  0
 21 22  1  0
 21 23  1  0
 23 24  2  0
 24 25  1  0
 24 12  1  0
  1 26  1  0
  1 27  1  0
  1 28  1  0
  2 29  1  0
  2 30  1  0
  3 31  1  0
  3 32  1  0
  4 33  1  0
  4 34  1  0
  6 35  1  0
  6 36  1  0
  7 37  1  0
  7 38  1  0
  8 39  1  0
  8 40  1  0
  9 41  1  0
  9 42  1  0
  9 43  1  0
 13 44  1  0
 19 45  1  0
 19 46  1  0
 19 47  1  0
 20 48  1  0
 20 49  1  0
 20 50  1  0
 23 51  1  0
M  END
>  <loss>  (14) 
0.5229055285453796

>  <score>  (14) 
4.160076141357422

$$$$
CMEGSHYBGCJHDV-UHFFFAOYSA-N
     RDKit          3D

 51 51  0  0  0  0  0  0  0  0999 V2000
  123.9586  125.7355   80.9752 C   0  0  0  0  0  0  0  0  0  0  0  0
  123.2497  124.5855   81.6741 C   0  0  0  0  0  0  0  0  0  0  0  0
  123.8052  124.3611   83.0804 C   0  0  0  0  0  0  0  0  0  0  0  0
  123.3066  123.0705   83.7366 C   0  0  0  0  0  0  0  0  0  0  0  0
  121.9381  123.1516   84.2625 N   0  0  0  0  0  0  0  0  0  0  0  0
  120.8512  123.2399   83.2836 C   0  0  0  0  0  0  0  0  0  0  0  0
  120.0360  121.9452   83.2325 C   0  0  0  0  0  0  0  0  0  0  0  0
  118.6981  122.1022   82.5083 C   0  0  0  0  0  0  0  0  0  0  0  0
  118.8375  122.6177   81.0843 C   0  0  0  0  0  0  0  0  0  0  0  0
  121.5804  123.0461   85.6056 C   0  0  0  0  0  0  0  0  0  0  0  0
  120.4604  123.2897   86.0476 O   0  0  0  0  0  0  0  0  0  0  0  0
  122.5708  122.5637   86.5787 C   0  0  0  0  0  0  0  0  0  0  0  0
  123.8553  122.2605   86.1141 C   0  0  0  0  0  0  0  0  0  0  0  0
  124.8175  121.7215   86.9867 C   0  0  0  0  0  0  0  0  0  0  0  0
  126.4428  121.4410   86.3108 S   0  0  0  0  0  6  0  0  0  0  0  0
  126.7431  120.0294   86.3701 O   0  0  0  0  0  0  0  0  0  0  0  0
  127.3226  122.3891   86.9664 O   0  0  0  0  0  0  0  0  0  0  0  0
  126.2971  121.9185   84.6889 N   0  0  0  0  0  0  0  0  0  0  0  0
  125.2910  121.2400   83.8577 C   0  0  0  0  0  0  0  0  0  0  0  0
  126.4367  123.3530   84.3858 C   0  0  0  0  0  0  0  0  0  0  0  0
  124.4850  121.4964   88.3255 C   0  0  0  0  0  0  0  0  0  0  0  0
  125.5468  120.8340   89.5114 Cl  0  0  0  0  0  0  0  0  0  0  0  0
  123.1852  121.7863   88.7732 C   0  0  0  0  0  0  0  0  0  0  0  0
  122.2242  122.3081   87.9038 C   0  0  0  0  0  0  0  0  0  0  0  0
  120.6482  122.6274   88.5285 Cl  0  0  0  0  0  0  0  0  0  0  0  0
  124.3796  126.4183   81.7279 H   0  0  0  0  0  0  0  0  0  0  0  0
  124.7690  125.3386   80.3462 H   0  0  0  0  0  0  0  0  0  0  0  0
  123.2399  126.2812   80.3462 H   0  0  0  0  0  0  0  0  0  0  0  0
  122.1767  124.8170   81.7457 H   0  0  0  0  0  0  0  0  0  0  0  0
  123.4127  123.6698   81.0869 H   0  0  0  0  0  0  0  0  0  0  0  0
  124.9026  124.3184   83.0182 H   0  0  0  0  0  0  0  0  0  0  0  0
  123.4541  125.1969   83.7035 H   0  0  0  0  0  0  0  0  0  0  0  0
  123.3407  122.2668   82.9864 H   0  0  0  0  0  0  0  0  0  0  0  0
  123.9647  122.8792   84.5971 H   0  0  0  0  0  0  0  0  0  0  0  0
  120.1860  124.0705   83.5620 H   0  0  0  0  0  0  0  0  0  0  0  0
  121.2937  123.4087   82.2908 H   0  0  0  0  0  0  0  0  0  0  0  0
  120.6284  121.1798   82.7099 H   0  0  0  0  0  0  0  0  0  0  0  0
  119.8133  121.6587   84.2709 H   0  0  0  0  0  0  0  0  0  0  0  0
  118.2018  121.1211   82.4767 H   0  0  0  0  0  0  0  0  0  0  0  0
  118.1127  122.8474   83.0669 H   0  0  0  0  0  0  0  0  0  0  0  0
  119.1246  123.6793   81.1050 H   0  0  0  0  0  0  0  0  0  0  0  0
  119.6114  122.0388   80.5589 H   0  0  0  0  0  0  0  0  0  0  0  0
  117.8774  122.5077   80.5589 H   0  0  0  0  0  0  0  0  0  0  0  0
  124.1138  122.4447   85.0609 H   0  0  0  0  0  0  0  0  0  0  0  0
  124.5542  120.7433   84.5061 H   0  0  0  0  0  0  0  0  0  0  0  0
  124.7810  121.9794   83.2227 H   0  0  0  0  0  0  0  0  0  0  0  0
  125.7853  120.4901   83.2227 H   0  0  0  0  0  0  0  0  0  0  0  0
  126.4921  123.9226   85.3252 H   0  0  0  0  0  0  0  0  0  0  0  0
  127.3550  123.5169   83.8029 H   0  0  0  0  0  0  0  0  0  0  0  0
  125.5671  123.6908   83.8029 H   0  0  0  0  0  0  0  0  0  0  0  0
  122.9202  121.5996   89.8243 H   0  0  0  0  0  0  0  0  0  0  0  0
  1  2  1  0
  2  3  1  0
  3  4  1  0
  4  5  1  0
  5  6  1  0
  6  7  1  0
  7  8  1  0
  8  9  1  0
  5 10  1  0
 10 11  2  0
 10 12  1  0
 12 13  2  0
 13 14  1  0
 14 15  1  0
 15 16  2  0
 15 17  2  0
 15 18  1  0
 18 19  1  0
 18 20  1  0
 14 21  2  0
 21 22  1  0
 21 23  1  0
 23 24  2  0
 24 25  1  0
 24 12  1  0
  1 26  1  0
  1 27  1  0
  1 28  1  0
  2 29  1  0
  2 30  1  0
  3 31  1  0
  3 32  1  0
  4 33  1  0
  4 34  1  0
  6 35  1  0
  6 36  1  0
  7 37  1  0
  7 38  1  0
  8 39  1  0
  8 40  1  0
  9 41  1  0
  9 42  1  0
  9 43  1  0
 13 44  1  0
 19 45  1  0
 19 46  1  0
 19 47  1  0
 20 48  1  0
 20 49  1  0
 20 50  1  0
 23 51  1  0
M  END
>  <loss>  (15) 
0.5282257795333862

>  <score>  (15) 
4.15335750579834

$$$$
CMEGSHYBGCJHDV-UHFFFAOYSA-N
     RDKit          3D

 51 51  0  0  0  0  0  0  0  0999 V2000
  121.0748  119.8369   81.2491 C   0  0  0  0  0  0  0  0  0  0  0  0
  121.6249  121.2053   81.6180 C   0  0  0  0  0  0  0  0  0  0  0  0
  121.2563  121.5890   83.0500 C   0  0  0  0  0  0  0  0  0  0  0  0
  121.7188  123.0096   83.3813 C   0  0  0  0  0  0  0  0  0  0  0  0
  121.4573  123.3475   84.7819 N   0  0  0  0  0  0  0  0  0  0  0  0
  121.4823  124.7687   85.1456 C   0  0  0  0  0  0  0  0  0  0  0  0
  120.6791  125.6641   84.1967 C   0  0  0  0  0  0  0  0  0  0  0  0
  120.6903  125.1828   82.7459 C   0  0  0  0  0  0  0  0  0  0  0  0
  119.2869  125.1627   82.1593 C   0  0  0  0  0  0  0  0  0  0  0  0
  121.3374  122.2875   85.6809 C   0  0  0  0  0  0  0  0  0  0  0  0
  120.3702  121.5332   85.7383 O   0  0  0  0  0  0  0  0  0  0  0  0
  122.4096  122.0527   86.6594 C   0  0  0  0  0  0  0  0  0  0  0  0
  123.7078  121.8688   86.1712 C   0  0  0  0  0  0  0  0  0  0  0  0
  124.7669  121.6651   87.0676 C   0  0  0  0  0  0  0  0  0  0  0  0
  126.3893  121.4102   86.4007 S   0  0  0  0  0  6  0  0  0  0  0  0
  127.3295  122.1406   87.2272 O   0  0  0  0  0  0  0  0  0  0  0  0
  126.5511  119.9913   86.1785 O   0  0  0  0  0  0  0  0  0  0  0  0
  126.3362  122.2226   84.8975 N   0  0  0  0  0  0  0  0  0  0  0  0
  127.2039  123.4146   84.7880 C   0  0  0  0  0  0  0  0  0  0  0  0
  126.5092  121.3134   83.7416 C   0  0  0  0  0  0  0  0  0  0  0  0
  124.5324  121.6813   88.4454 C   0  0  0  0  0  0  0  0  0  0  0  0
  125.7546  121.4337   89.6381 Cl  0  0  0  0  0  0  0  0  0  0  0  0
  123.2313  121.8987   88.9217 C   0  0  0  0  0  0  0  0  0  0  0  0
  122.1696  122.0910   88.0336 C   0  0  0  0  0  0  0  0  0  0  0  0
  120.5966  122.3591   88.6903 Cl  0  0  0  0  0  0  0  0  0  0  0  0
  120.8482  119.2734   82.1662 H   0  0  0  0  0  0  0  0  0  0  0  0
  120.1557  119.9587   80.6570 H   0  0  0  0  0  0  0  0  0  0  0  0
  121.8224  119.2886   80.6570 H   0  0  0  0  0  0  0  0  0  0  0  0
  122.7207  121.1875   81.5235 H   0  0  0  0  0  0  0  0  0  0  0  0
  121.1855  121.9492   80.9372 H   0  0  0  0  0  0  0  0  0  0  0  0
  120.1640  121.5314   83.1666 H   0  0  0  0  0  0  0  0  0  0  0  0
  121.7580  120.8913   83.7367 H   0  0  0  0  0  0  0  0  0  0  0  0
  122.7994  123.0869   83.1909 H   0  0  0  0  0  0  0  0  0  0  0  0
  121.1576  123.7114   82.7469 H   0  0  0  0  0  0  0  0  0  0  0  0
  121.0659  124.8749   86.1582 H   0  0  0  0  0  0  0  0  0  0  0  0
  122.5306  125.0965   85.0850 H   0  0  0  0  0  0  0  0  0  0  0  0
  119.6363  125.6936   84.5454 H   0  0  0  0  0  0  0  0  0  0  0  0
  121.1529  126.6568   84.2111 H   0  0  0  0  0  0  0  0  0  0  0  0
  121.3186  125.8598   82.1486 H   0  0  0  0  0  0  0  0  0  0  0  0
  121.0907  124.1585   82.7232 H   0  0  0  0  0  0  0  0  0  0  0  0
  118.5487  125.1521   82.9748 H   0  0  0  0  0  0  0  0  0  0  0  0
  119.1357  126.0587   81.5395 H   0  0  0  0  0  0  0  0  0  0  0  0
  119.1614  124.2626   81.5395 H   0  0  0  0  0  0  0  0  0  0  0  0
  123.8971  121.8838   85.0877 H   0  0  0  0  0  0  0  0  0  0  0  0
  127.4643  123.7724   85.7951 H   0  0  0  0  0  0  0  0  0  0  0  0
  128.1226  123.1507   84.2438 H   0  0  0  0  0  0  0  0  0  0  0  0
  126.6703  124.2078   84.2438 H   0  0  0  0  0  0  0  0  0  0  0  0
  126.7034  120.2929   84.1036 H   0  0  0  0  0  0  0  0  0  0  0  0
  125.5941  121.3180   83.1313 H   0  0  0  0  0  0  0  0  0  0  0  0
  127.3587  121.6537   83.1313 H   0  0  0  0  0  0  0  0  0  0  0  0
  123.0446  121.9181   90.0056 H   0  0  0  0  0  0  0  0  0  0  0  0
  1  2  1  0
  2  3  1  0
  3  4  1  0
  4  5  1  0
  5  6  1  0
  6  7  1  0
  7  8  1  0
  8  9  1  0
  5 10  1  0
 10 11  2  0
 10 12  1  0
 12 13  2  0
 13 14  1  0
 14 15  1  0
 15 16  2  0
 15 17  2  0
 15 18  1  0
 18 19  1  0
 18 20  1  0
 14 21  2  0
 21 22  1  0
 21 23  1  0
 23 24  2  0
 24 25  1  0
 24 12  1  0
  1 26  1  0
  1 27  1  0
  1 28  1  0
  2 29  1  0
  2 30  1  0
  3 31  1  0
  3 32  1  0
  4 33  1  0
  4 34  1  0
  6 35  1  0
  6 36  1  0
  7 37  1  0
  7 38  1  0
  8 39  1  0
  8 40  1  0
  9 41  1  0
  9 42  1  0
  9 43  1  0
 13 44  1  0
 19 45  1  0
 19 46  1  0
 19 47  1  0
 20 48  1  0
 20 49  1  0
 20 50  1  0
 23 51  1  0
M  END
>  <loss>  (16) 
0.45935824513435364

>  <score>  (16) 
2.9217076301574707

$$$$
CMEGSHYBGCJHDV-UHFFFAOYSA-N
     RDKit          3D

 51 51  0  0  0  0  0  0  0  0999 V2000
  118.8574  126.6329   87.0178 C   0  0  0  0  0  0  0  0  0  0  0  0
  118.8904  125.5459   85.9555 C   0  0  0  0  0  0  0  0  0  0  0  0
  120.2207  124.7950   85.9645 C   0  0  0  0  0  0  0  0  0  0  0  0
  120.2447  123.6941   84.9027 C   0  0  0  0  0  0  0  0  0  0  0  0
  121.4959  122.9366   84.9455 N   0  0  0  0  0  0  0  0  0  0  0  0
  122.5661  123.3560   84.0324 C   0  0  0  0  0  0  0  0  0  0  0  0
  122.2591  122.9595   82.5863 C   0  0  0  0  0  0  0  0  0  0  0  0
  123.2254  123.5769   81.5743 C   0  0  0  0  0  0  0  0  0  0  0  0
  123.0686  125.0825   81.4288 C   0  0  0  0  0  0  0  0  0  0  0  0
  121.5886  121.8898   85.8586 C   0  0  0  0  0  0  0  0  0  0  0  0
  120.8540  120.9059   85.8725 O   0  0  0  0  0  0  0  0  0  0  0  0
  122.6593  121.9177   86.8649 C   0  0  0  0  0  0  0  0  0  0  0  0
  123.9809  121.8634   86.4117 C   0  0  0  0  0  0  0  0  0  0  0  0
  125.0443  121.8277   87.3307 C   0  0  0  0  0  0  0  0  0  0  0  0
  126.6913  121.8330   86.6492 S   0  0  0  0  0  6  0  0  0  0  0  0
  127.6471  121.9840   87.7218 O   0  0  0  0  0  0  0  0  0  0  0  0
  126.6774  122.7916   85.5616 O   0  0  0  0  0  0  0  0  0  0  0  0
  126.8527  120.2878   85.9659 N   0  0  0  0  0  0  0  0  0  0  0  0
  126.8560  119.1301   86.8731 C   0  0  0  0  0  0  0  0  0  0  0  0
  126.1603  120.0315   84.6913 C   0  0  0  0  0  0  0  0  0  0  0  0
  124.7721  121.8567   88.7018 C   0  0  0  0  0  0  0  0  0  0  0  0
  125.9617  121.8028   89.9487 Cl  0  0  0  0  0  0  0  0  0  0  0  0
  123.4382  121.8987   89.1419 C   0  0  0  0  0  0  0  0  0  0  0  0
  122.3807  121.9220   88.2298 C   0  0  0  0  0  0  0  0  0  0  0  0
  120.7702  121.9690   88.8442 Cl  0  0  0  0  0  0  0  0  0  0  0  0
  118.8714  126.1707   88.0159 H   0  0  0  0  0  0  0  0  0  0  0  0
  119.7362  127.2845   86.9031 H   0  0  0  0  0  0  0  0  0  0  0  0
  117.9407  127.2300   86.9031 H   0  0  0  0  0  0  0  0  0  0  0  0
  118.0758  124.8324   86.1486 H   0  0  0  0  0  0  0  0  0  0  0  0
  118.7690  126.0214   84.9710 H   0  0  0  0  0  0  0  0  0  0  0  0
  121.0351  125.5062   85.7618 H   0  0  0  0  0  0  0  0  0  0  0  0
  120.3490  124.3277   86.9521 H   0  0  0  0  0  0  0  0  0  0  0  0
  119.4044  123.0070   85.0807 H   0  0  0  0  0  0  0  0  0  0  0  0
  120.1604  124.1666   83.9129 H   0  0  0  0  0  0  0  0  0  0  0  0
  122.6747  124.4493   84.0876 H   0  0  0  0  0  0  0  0  0  0  0  0
  123.4959  122.8535   84.3374 H   0  0  0  0  0  0  0  0  0  0  0  0
  122.3192  121.8642   82.5039 H   0  0  0  0  0  0  0  0  0  0  0  0
  121.2533  123.3371   82.3503 H   0  0  0  0  0  0  0  0  0  0  0  0
  124.2543  123.3635   81.8998 H   0  0  0  0  0  0  0  0  0  0  0  0
  122.9977  123.1310   80.5948 H   0  0  0  0  0  0  0  0  0  0  0  0
  123.0205  125.5441   82.4261 H   0  0  0  0  0  0  0  0  0  0  0  0
  123.9292  125.4892   80.8776 H   0  0  0  0  0  0  0  0  0  0  0  0
  122.1426  125.3031   80.8776 H   0  0  0  0  0  0  0  0  0  0  0  0
  124.1894  121.8485   85.3317 H   0  0  0  0  0  0  0  0  0  0  0  0
  126.8550  119.4812   87.9156 H   0  0  0  0  0  0  0  0  0  0  0  0
  125.9595  118.5191   86.6911 H   0  0  0  0  0  0  0  0  0  0  0  0
  127.7558  118.5242   86.6911 H   0  0  0  0  0  0  0  0  0  0  0  0
  125.1463  119.6563   84.8938 H   0  0  0  0  0  0  0  0  0  0  0  0
  126.0970  120.9658   84.1141 H   0  0  0  0  0  0  0  0  0  0  0  0
  126.7205  119.2812   84.1141 H   0  0  0  0  0  0  0  0  0  0  0  0
  123.2237  121.9134   90.2207 H   0  0  0  0  0  0  0  0  0  0  0  0
  1  2  1  0
  2  3  1  0
  3  4  1  0
  4  5  1  0
  5  6  1  0
  6  7  1  0
  7  8  1  0
  8  9  1  0
  5 10  1  0
 10 11  2  0
 10 12  1  0
 12 13  2  0
 13 14  1  0
 14 15  1  0
 15 16  2  0
 15 17  2  0
 15 18  1  0
 18 19  1  0
 18 20  1  0
 14 21  2  0
 21 22  1  0
 21 23  1  0
 23 24  2  0
 24 25  1  0
 24 12  1  0
  1 26  1  0
  1 27  1  0
  1 28  1  0
  2 29  1  0
  2 30  1  0
  3 31  1  0
  3 32  1  0
  4 33  1  0
  4 34  1  0
  6 35  1  0
  6 36  1  0
  7 37  1  0
  7 38  1  0
  8 39  1  0
  8 40  1  0
  9 41  1  0
  9 42  1  0
  9 43  1  0
 13 44  1  0
 19 45  1  0
 19 46  1  0
 19 47  1  0
 20 48  1  0
 20 49  1  0
 20 50  1  0
 23 51  1  0
M  END
>  <loss>  (17) 
0.6601731181144714

>  <score>  (17) 
3.187162399291992

$$$$
CMEGSHYBGCJHDV-UHFFFAOYSA-N
     RDKit          3D

 51 51  0  0  0  0  0  0  0  0999 V2000
  120.1685  127.3400   83.5273 C   0  0  0  0  0  0  0  0  0  0  0  0
  120.8501  125.9804   83.5268 C   0  0  0  0  0  0  0  0  0  0  0  0
  121.8170  125.8418   84.7026 C   0  0  0  0  0  0  0  0  0  0  0  0
  122.5650  124.5058   84.7257 C   0  0  0  0  0  0  0  0  0  0  0  0
  121.6921  123.3257   84.6860 N   0  0  0  0  0  0  0  0  0  0  0  0
  121.1260  122.9579   83.3854 C   0  0  0  0  0  0  0  0  0  0  0  0
  122.0626  122.0292   82.6085 C   0  0  0  0  0  0  0  0  0  0  0  0
  121.5168  121.6312   81.2364 C   0  0  0  0  0  0  0  0  0  0  0  0
  121.4392  122.7912   80.2560 C   0  0  0  0  0  0  0  0  0  0  0  0
  121.4423  122.4684   85.7564 C   0  0  0  0  0  0  0  0  0  0  0  0
  120.3936  121.8503   85.9214 O   0  0  0  0  0  0  0  0  0  0  0  0
  122.5019  122.2235   86.7453 C   0  0  0  0  0  0  0  0  0  0  0  0
  123.7849  121.9249   86.2738 C   0  0  0  0  0  0  0  0  0  0  0  0
  124.8163  121.6053   87.1748 C   0  0  0  0  0  0  0  0  0  0  0  0
  126.4291  121.3137   86.4740 S   0  0  0  0  0  6  0  0  0  0  0  0
  126.6688  119.8906   86.4138 O   0  0  0  0  0  0  0  0  0  0  0  0
  127.3476  122.1649   87.2050 O   0  0  0  0  0  0  0  0  0  0  0  0
  126.3061  121.9315   84.8984 N   0  0  0  0  0  0  0  0  0  0  0  0
  125.0746  121.6551   84.1431 C   0  0  0  0  0  0  0  0  0  0  0  0
  126.8580  123.2738   84.6478 C   0  0  0  0  0  0  0  0  0  0  0  0
  124.5538  121.5946   88.5476 C   0  0  0  0  0  0  0  0  0  0  0  0
  125.7056  121.2140   89.7728 Cl  0  0  0  0  0  0  0  0  0  0  0  0
  123.2558  121.8763   89.0054 C   0  0  0  0  0  0  0  0  0  0  0  0
  122.2268  122.1796   88.1104 C   0  0  0  0  0  0  0  0  0  0  0  0
  120.6585  122.5036   88.7517 Cl  0  0  0  0  0  0  0  0  0  0  0  0
  120.0043  127.6675   84.5645 H   0  0  0  0  0  0  0  0  0  0  0  0
  120.8070  128.0705   83.0088 H   0  0  0  0  0  0  0  0  0  0  0  0
  119.2012  127.2654   83.0088 H   0  0  0  0  0  0  0  0  0  0  0  0
  120.0831  125.1953   83.5995 H   0  0  0  0  0  0  0  0  0  0  0  0
  121.4232  125.8803   82.5933 H   0  0  0  0  0  0  0  0  0  0  0  0
  122.5567  126.6537   84.6424 H   0  0  0  0  0  0  0  0  0  0  0  0
  121.2160  125.8914   85.6226 H   0  0  0  0  0  0  0  0  0  0  0  0
  123.2335  124.4698   83.8529 H   0  0  0  0  0  0  0  0  0  0  0  0
  123.1083  124.4646   85.6813 H   0  0  0  0  0  0  0  0  0  0  0  0
  120.1661  122.4451   83.5455 H   0  0  0  0  0  0  0  0  0  0  0  0
  120.9855  123.8771   82.7977 H   0  0  0  0  0  0  0  0  0  0  0  0
  123.0248  122.5430   82.4660 H   0  0  0  0  0  0  0  0  0  0  0  0
  122.1694  121.1063   83.1975 H   0  0  0  0  0  0  0  0  0  0  0  0
  122.1739  120.8585   80.8107 H   0  0  0  0  0  0  0  0  0  0  0  0
  120.4902  121.2668   81.3893 H   0  0  0  0  0  0  0  0  0  0  0  0
  121.3759  123.7380   80.8125 H   0  0  0  0  0  0  0  0  0  0  0  0
  122.3389  122.7973   79.6232 H   0  0  0  0  0  0  0  0  0  0  0  0
  120.5466  122.6774   79.6232 H   0  0  0  0  0  0  0  0  0  0  0  0
  123.9879  121.9402   85.1928 H   0  0  0  0  0  0  0  0  0  0  0  0
  124.2480  121.4695   84.8447 H   0  0  0  0  0  0  0  0  0  0  0  0
  124.8307  122.5208   83.5098 H   0  0  0  0  0  0  0  0  0  0  0  0
  125.2242  120.7681   83.5098 H   0  0  0  0  0  0  0  0  0  0  0  0
  127.0626  123.7712   85.6074 H   0  0  0  0  0  0  0  0  0  0  0  0
  127.7926  123.1848   84.0744 H   0  0  0  0  0  0  0  0  0  0  0  0
  126.1312  123.8680   84.0744 H   0  0  0  0  0  0  0  0  0  0  0  0
  123.0465  121.8577   90.0852 H   0  0  0  0  0  0  0  0  0  0  0  0
  1  2  1  0
  2  3  1  0
  3  4  1  0
  4  5  1  0
  5  6  1  0
  6  7  1  0
  7  8  1  0
  8  9  1  0
  5 10  1  0
 10 11  2  0
 10 12  1  0
 12 13  2  0
 13 14  1  0
 14 15  1  0
 15 16  2  0
 15 17  2  0
 15 18  1  0
 18 19  1  0
 18 20  1  0
 14 21  2  0
 21 22  1  0
 21 23  1  0
 23 24  2  0
 24 25  1  0
 24 12  1  0
  1 26  1  0
  1 27  1  0
  1 28  1  0
  2 29  1  0
  2 30  1  0
  3 31  1  0
  3 32  1  0
  4 33  1  0
  4 34  1  0
  6 35  1  0
  6 36  1  0
  7 37  1  0
  7 38  1  0
  8 39  1  0
  8 40  1  0
  9 41  1  0
  9 42  1  0
  9 43  1  0
 13 44  1  0
 19 45  1  0
 19 46  1  0
 19 47  1  0
 20 48  1  0
 20 49  1  0
 20 50  1  0
 23 51  1  0
M  END
>  <loss>  (18) 
0.48065751791000366

>  <score>  (18) 
1.1214919090270996

$$$$
CMEGSHYBGCJHDV-UHFFFAOYSA-N
     RDKit          3D

 51 51  0  0  0  0  0  0  0  0999 V2000
  119.8959  118.8627   82.5336 C   0  0  0  0  0  0  0  0  0  0  0  0
  119.4564  120.2294   83.0382 C   0  0  0  0  0  0  0  0  0  0  0  0
  119.1390  120.2407   84.5353 C   0  0  0  0  0  0  0  0  0  0  0  0
  120.2226  120.8822   85.4130 C   0  0  0  0  0  0  0  0  0  0  0  0
  120.3928  122.3246   85.1775 N   0  0  0  0  0  0  0  0  0  0  0  0
  119.3507  123.0094   84.4054 C   0  0  0  0  0  0  0  0  0  0  0  0
  119.0630  124.4081   84.9602 C   0  0  0  0  0  0  0  0  0  0  0  0
  118.9062  125.4695   83.8701 C   0  0  0  0  0  0  0  0  0  0  0  0
  120.1183  125.5855   82.9589 C   0  0  0  0  0  0  0  0  0  0  0  0
  121.3700  123.1318   85.7612 C   0  0  0  0  0  0  0  0  0  0  0  0
  121.5100  124.3301   85.5272 O   0  0  0  0  0  0  0  0  0  0  0  0
  122.3351  122.5436   86.6998 C   0  0  0  0  0  0  0  0  0  0  0  0
  123.6371  122.3264   86.2368 C   0  0  0  0  0  0  0  0  0  0  0  0
  124.6086  121.8103   87.1062 C   0  0  0  0  0  0  0  0  0  0  0  0
  126.2267  121.4923   86.4568 S   0  0  0  0  0  6  0  0  0  0  0  0
  127.1821  122.0463   87.3900 O   0  0  0  0  0  0  0  0  0  0  0  0
  126.2923  120.0917   86.0906 O   0  0  0  0  0  0  0  0  0  0  0  0
  126.2591  122.3853   85.0023 N   0  0  0  0  0  0  0  0  0  0  0  0
  125.4207  121.8469   83.9082 C   0  0  0  0  0  0  0  0  0  0  0  0
  127.6311  122.6898   84.5375 C   0  0  0  0  0  0  0  0  0  0  0  0
  124.2828  121.5322   88.4366 C   0  0  0  0  0  0  0  0  0  0  0  0
  125.3991  120.9117   89.5969 Cl  0  0  0  0  0  0  0  0  0  0  0  0
  122.9810  121.7809   88.8950 C   0  0  0  0  0  0  0  0  0  0  0  0
  122.0074  122.2929   88.0332 C   0  0  0  0  0  0  0  0  0  0  0  0
  120.4323  122.5929   88.6706 Cl  0  0  0  0  0  0  0  0  0  0  0  0
  120.1070  118.2059   83.3905 H   0  0  0  0  0  0  0  0  0  0  0  0
  119.0941  118.4221   81.9228 H   0  0  0  0  0  0  0  0  0  0  0  0
  120.8041  118.9720   81.9228 H   0  0  0  0  0  0  0  0  0  0  0  0
  120.2645  120.9504   82.8459 H   0  0  0  0  0  0  0  0  0  0  0  0
  118.5325  120.4957   82.5041 H   0  0  0  0  0  0  0  0  0  0  0  0
  118.2026  120.7987   84.6833 H   0  0  0  0  0  0  0  0  0  0  0  0
  119.0676  119.1882   84.8470 H   0  0  0  0  0  0  0  0  0  0  0  0
  119.9500  120.7317   86.4680 H   0  0  0  0  0  0  0  0  0  0  0  0
  121.1759  120.3980   85.1545 H   0  0  0  0  0  0  0  0  0  0  0  0
  119.6830  123.1013   83.3608 H   0  0  0  0  0  0  0  0  0  0  0  0
  118.4269  122.4161   84.4737 H   0  0  0  0  0  0  0  0  0  0  0  0
  118.1320  124.3674   85.5447 H   0  0  0  0  0  0  0  0  0  0  0  0
  119.9264  124.6985   85.5767 H   0  0  0  0  0  0  0  0  0  0  0  0
  118.0316  125.2107   83.2552 H   0  0  0  0  0  0  0  0  0  0  0  0
  118.7875  126.4388   84.3764 H   0  0  0  0  0  0  0  0  0  0  0  0
  121.0290  125.6727   83.5696 H   0  0  0  0  0  0  0  0  0  0  0  0
  120.1868  124.6898   82.3241 H   0  0  0  0  0  0  0  0  0  0  0  0
  120.0157  126.4779   82.3241 H   0  0  0  0  0  0  0  0  0  0  0  0
  123.8980  122.5599   85.1940 H   0  0  0  0  0  0  0  0  0  0  0  0
  124.5677  121.2993   84.3354 H   0  0  0  0  0  0  0  0  0  0  0  0
  125.0503  122.6765   83.2879 H   0  0  0  0  0  0  0  0  0  0  0  0
  126.0207  121.1649   83.2879 H   0  0  0  0  0  0  0  0  0  0  0  0
  128.2888  122.8357   85.4071 H   0  0  0  0  0  0  0  0  0  0  0  0
  128.0066  121.8531   83.9301 H   0  0  0  0  0  0  0  0  0  0  0  0
  127.6174  123.6067   83.9301 H   0  0  0  0  0  0  0  0  0  0  0  0
  122.7236  121.5708   89.9437 H   0  0  0  0  0  0  0  0  0  0  0  0
  1  2  1  0
  2  3  1  0
  3  4  1  0
  4  5  1  0
  5  6  1  0
  6  7  1  0
  7  8  1  0
  8  9  1  0
  5 10  1  0
 10 11  2  0
 10 12  1  0
 12 13  2  0
 13 14  1  0
 14 15  1  0
 15 16  2  0
 15 17  2  0
 15 18  1  0
 18 19  1  0
 18 20  1  0
 14 21  2  0
 21 22  1  0
 21 23  1  0
 23 24  2  0
 24 25  1  0
 24 12  1  0
  1 26  1  0
  1 27  1  0
  1 28  1  0
  2 29  1  0
  2 30  1  0
  3 31  1  0
  3 32  1  0
  4 33  1  0
  4 34  1  0
  6 35  1  0
  6 36  1  0
  7 37  1  0
  7 38  1  0
  8 39  1  0
  8 40  1  0
  9 41  1  0
  9 42  1  0
  9 43  1  0
 13 44  1  0
 19 45  1  0
 19 46  1  0
 19 47  1  0
 20 48  1  0
 20 49  1  0
 20 50  1  0
 23 51  1  0
M  END
>  <loss>  (19) 
0.6053565740585327

>  <score>  (19) 
1.7124242782592773

$$$$
CMEGSHYBGCJHDV-UHFFFAOYSA-N
     RDKit          3D

 51 51  0  0  0  0  0  0  0  0999 V2000
  121.2216  127.6871   87.5078 C   0  0  0  0  0  0  0  0  0  0  0  0
  120.3969  126.6555   86.7548 C   0  0  0  0  0  0  0  0  0  0  0  0
  121.2438  125.4509   86.3480 C   0  0  0  0  0  0  0  0  0  0  0  0
  120.4299  124.4527   85.5226 C   0  0  0  0  0  0  0  0  0  0  0  0
  121.2403  123.3012   85.1247 N   0  0  0  0  0  0  0  0  0  0  0  0
  121.9895  123.4101   83.8670 C   0  0  0  0  0  0  0  0  0  0  0  0
  121.0525  123.4964   82.6599 C   0  0  0  0  0  0  0  0  0  0  0  0
  121.4626  124.5736   81.6546 C   0  0  0  0  0  0  0  0  0  0  0  0
  121.0735  125.9800   82.0827 C   0  0  0  0  0  0  0  0  0  0  0  0
  121.2584  122.1974   85.9730 C   0  0  0  0  0  0  0  0  0  0  0  0
  120.3830  121.3377   86.0218 O   0  0  0  0  0  0  0  0  0  0  0  0
  122.4159  121.9995   86.8565 C   0  0  0  0  0  0  0  0  0  0  0  0
  123.6522  121.7327   86.2606 C   0  0  0  0  0  0  0  0  0  0  0  0
  124.7823  121.4768   87.0570 C   0  0  0  0  0  0  0  0  0  0  0  0
  126.3239  121.2204   86.1997 S   0  0  0  0  0  6  0  0  0  0  0  0
  126.2900  119.9366   85.5383 O   0  0  0  0  0  0  0  0  0  0  0  0
  127.3736  121.5050   87.1584 O   0  0  0  0  0  0  0  0  0  0  0  0
  126.3495  122.4530   85.0333 N   0  0  0  0  0  0  0  0  0  0  0  0
  125.3353  122.4156   83.9689 C   0  0  0  0  0  0  0  0  0  0  0  0
  126.6691  123.8163   85.4907 C   0  0  0  0  0  0  0  0  0  0  0  0
  124.6639  121.5004   88.4499 C   0  0  0  0  0  0  0  0  0  0  0  0
  125.9484  121.1920   89.5580 Cl  0  0  0  0  0  0  0  0  0  0  0  0
  123.4120  121.7578   89.0339 C   0  0  0  0  0  0  0  0  0  0  0  0
  122.2863  122.0003   88.2435 C   0  0  0  0  0  0  0  0  0  0  0  0
  120.7828  122.3042   89.0312 Cl  0  0  0  0  0  0  0  0  0  0  0  0
  121.0998  127.5347   88.5903 H   0  0  0  0  0  0  0  0  0  0  0  0
  122.2824  127.5757   87.2389 H   0  0  0  0  0  0  0  0  0  0  0  0
  120.8793  128.6974   87.2389 H   0  0  0  0  0  0  0  0  0  0  0  0
  119.5757  126.3131   87.4016 H   0  0  0  0  0  0  0  0  0  0  0  0
  120.0052  127.1266   85.8412 H   0  0  0  0  0  0  0  0  0  0  0  0
  122.0978  125.7994   85.7487 H   0  0  0  0  0  0  0  0  0  0  0  0
  121.5899  124.9454   87.2616 H   0  0  0  0  0  0  0  0  0  0  0  0
  119.5792  124.1006   86.1245 H   0  0  0  0  0  0  0  0  0  0  0  0
  120.0806  124.9610   84.6117 H   0  0  0  0  0  0  0  0  0  0  0  0
  122.6135  124.3154   83.9002 H   0  0  0  0  0  0  0  0  0  0  0  0
  122.6109  122.5091   83.7570 H   0  0  0  0  0  0  0  0  0  0  0  0
  121.0513  122.5228   82.1479 H   0  0  0  0  0  0  0  0  0  0  0  0
  120.0554  123.7653   83.0386 H   0  0  0  0  0  0  0  0  0  0  0  0
  122.5550  124.5368   81.5306 H   0  0  0  0  0  0  0  0  0  0  0  0
  120.9296  124.3612   80.7161 H   0  0  0  0  0  0  0  0  0  0  0  0
  121.0576  126.0377   83.1811 H   0  0  0  0  0  0  0  0  0  0  0  0
  121.8064  126.6993   81.6884 H   0  0  0  0  0  0  0  0  0  0  0  0
  120.0752  126.2203   81.6884 H   0  0  0  0  0  0  0  0  0  0  0  0
  123.7411  121.7228   85.1642 H   0  0  0  0  0  0  0  0  0  0  0  0
  124.3323  122.3787   84.4192 H   0  0  0  0  0  0  0  0  0  0  0  0
  125.4244  123.3177   83.3457 H   0  0  0  0  0  0  0  0  0  0  0  0
  125.4905  121.5226   83.3457 H   0  0  0  0  0  0  0  0  0  0  0  0
  126.6752  123.8421   86.5904 H   0  0  0  0  0  0  0  0  0  0  0  0
  127.6599  124.1074   85.1116 H   0  0  0  0  0  0  0  0  0  0  0  0
  125.9110  124.5174   85.1116 H   0  0  0  0  0  0  0  0  0  0  0  0
  123.3172  121.7685   90.1298 H   0  0  0  0  0  0  0  0  0  0  0  0
  1  2  1  0
  2  3  1  0
  3  4  1  0
  4  5  1  0
  5  6  1  0
  6  7  1  0
  7  8  1  0
  8  9  1  0
  5 10  1  0
 10 11  2  0
 10 12  1  0
 12 13  2  0
 13 14  1  0
 14 15  1  0
 15 16  2  0
 15 17  2  0
 15 18  1  0
 18 19  1  0
 18 20  1  0
 14 21  2  0
 21 22  1  0
 21 23  1  0
 23 24  2  0
 24 25  1  0
 24 12  1  0
  1 26  1  0
  1 27  1  0
  1 28  1  0
  2 29  1  0
  2 30  1  0
  3 31  1  0
  3 32  1  0
  4 33  1  0
  4 34  1  0
  6 35  1  0
  6 36  1  0
  7 37  1  0
  7 38  1  0
  8 39  1  0
  8 40  1  0
  9 41  1  0
  9 42  1  0
  9 43  1  0
 13 44  1  0
 19 45  1  0
 19 46  1  0
 19 47  1  0
 20 48  1  0
 20 49  1  0
 20 50  1  0
 23 51  1  0
M  END
>  <loss>  (20) 
0.5069049000740051

>  <score>  (20) 
1.122466802597046

$$$$
CMEGSHYBGCJHDV-UHFFFAOYSA-N
     RDKit          3D

 51 51  0  0  0  0  0  0  0  0999 V2000
  116.6129  125.1815   85.7239 C   0  0  0  0  0  0  0  0  0  0  0  0
  117.6091  124.6604   84.7004 C   0  0  0  0  0  0  0  0  0  0  0  0
  118.6994  123.8178   85.3598 C   0  0  0  0  0  0  0  0  0  0  0  0
  119.7116  123.3135   84.3288 C   0  0  0  0  0  0  0  0  0  0  0  0
  120.8153  122.5926   84.9666 N   0  0  0  0  0  0  0  0  0  0  0  0
  120.7413  121.1273   84.9800 C   0  0  0  0  0  0  0  0  0  0  0  0
  121.1396  120.4758   83.6517 C   0  0  0  0  0  0  0  0  0  0  0  0
  120.1677  120.7721   82.5098 C   0  0  0  0  0  0  0  0  0  0  0  0
  120.5240  119.9799   81.2610 C   0  0  0  0  0  0  0  0  0  0  0  0
  121.7790  123.3570   85.6247 C   0  0  0  0  0  0  0  0  0  0  0  0
  121.9584  124.5572   85.4378 O   0  0  0  0  0  0  0  0  0  0  0  0
  122.6770  122.7032   86.5882 C   0  0  0  0  0  0  0  0  0  0  0  0
  124.0255  122.5747   86.2380 C   0  0  0  0  0  0  0  0  0  0  0  0
  124.9244  121.9792   87.1347 C   0  0  0  0  0  0  0  0  0  0  0  0
  126.6173  121.8145   86.6356 S   0  0  0  0  0  6  0  0  0  0  0  0
  126.8011  122.5891   85.4245 O   0  0  0  0  0  0  0  0  0  0  0  0
  127.4402  122.0586   87.7985 O   0  0  0  0  0  0  0  0  0  0  0  0
  126.7423  120.1713   86.1807 N   0  0  0  0  0  0  0  0  0  0  0  0
  126.1007  119.8165   84.8969 C   0  0  0  0  0  0  0  0  0  0  0  0
  128.1267  119.6520   86.2612 C   0  0  0  0  0  0  0  0  0  0  0  0
  124.4821  121.5476   88.3884 C   0  0  0  0  0  0  0  0  0  0  0  0
  125.4948  120.7948   89.5654 Cl  0  0  0  0  0  0  0  0  0  0  0  0
  123.1341  121.7117   88.7389 C   0  0  0  0  0  0  0  0  0  0  0  0
  122.2308  122.2939   87.8456 C   0  0  0  0  0  0  0  0  0  0  0  0
  120.5889  122.4698   88.3462 Cl  0  0  0  0  0  0  0  0  0  0  0  0
  116.9913  124.9836   86.7376 H   0  0  0  0  0  0  0  0  0  0  0  0
  116.4797  126.2649   85.5872 H   0  0  0  0  0  0  0  0  0  0  0  0
  115.6470  124.6732   85.5872 H   0  0  0  0  0  0  0  0  0  0  0  0
  117.0749  124.0414   83.9646 H   0  0  0  0  0  0  0  0  0  0  0  0
  118.0867  125.5231   84.2131 H   0  0  0  0  0  0  0  0  0  0  0  0
  119.2242  124.4315   86.1068 H   0  0  0  0  0  0  0  0  0  0  0  0
  118.2252  122.9468   85.8358 H   0  0  0  0  0  0  0  0  0  0  0  0
  119.2007  122.6369   83.6280 H   0  0  0  0  0  0  0  0  0  0  0  0
  120.1282  124.1838   83.8006 H   0  0  0  0  0  0  0  0  0  0  0  0
  121.4145  120.7533   85.7654 H   0  0  0  0  0  0  0  0  0  0  0  0
  119.6900  120.8613   85.1648 H   0  0  0  0  0  0  0  0  0  0  0  0
  122.1349  120.8474   83.3667 H   0  0  0  0  0  0  0  0  0  0  0  0
  121.1294  119.3873   83.8102 H   0  0  0  0  0  0  0  0  0  0  0  0
  119.1495  120.5023   82.8268 H   0  0  0  0  0  0  0  0  0  0  0  0
  120.2297  121.8439   82.2704 H   0  0  0  0  0  0  0  0  0  0  0  0
  120.9591  119.0125   81.5521 H   0  0  0  0  0  0  0  0  0  0  0  0
  119.6161  119.8088   80.6639 H   0  0  0  0  0  0  0  0  0  0  0  0
  121.2543  120.5456   80.6639 H   0  0  0  0  0  0  0  0  0  0  0  0
  124.3794  122.9396   85.2625 H   0  0  0  0  0  0  0  0  0  0  0  0
  125.1535  119.2926   85.0927 H   0  0  0  0  0  0  0  0  0  0  0  0
  125.9010  120.7324   84.3213 H   0  0  0  0  0  0  0  0  0  0  0  0
  126.7703  119.1605   84.3213 H   0  0  0  0  0  0  0  0  0  0  0  0
  128.4167  119.5432   87.3167 H   0  0  0  0  0  0  0  0  0  0  0  0
  128.1804  118.6726   85.7633 H   0  0  0  0  0  0  0  0  0  0  0  0
  128.8113  120.3545   85.7633 H   0  0  0  0  0  0  0  0  0  0  0  0
  122.7843  121.3786   89.7271 H   0  0  0  0  0  0  0  0  0  0  0  0
  1  2  1  0
  2  3  1  0
  3  4  1  0
  4  5  1  0
  5  6  1  0
  6  7  1  0
  7  8  1  0
  8  9  1  0
  5 10  1  0
 10 11  2  0
 10 12  1  0
 12 13  2  0
 13 14  1  0
 14 15  1  0
 15 16  2  0
 15 17  2  0
 15 18  1  0
 18 19  1  0
 18 20  1  0
 14 21  2  0
 21 22  1  0
 21 23  1  0
 23 24  2  0
 24 25  1  0
 24 12  1  0
  1 26  1  0
  1 27  1  0
  1 28  1  0
  2 29  1  0
  2 30  1  0
  3 31  1  0
  3 32  1  0
  4 33  1  0
  4 34  1  0
  6 35  1  0
  6 36  1  0
  7 37  1  0
  7 38  1  0
  8 39  1  0
  8 40  1  0
  9 41  1  0
  9 42  1  0
  9 43  1  0
 13 44  1  0
 19 45  1  0
 19 46  1  0
 19 47  1  0
 20 48  1  0
 20 49  1  0
 20 50  1  0
 23 51  1  0
M  END
>  <loss>  (21) 
0.8113230466842651

>  <score>  (21) 
2.167048931121826

$$$$
CMEGSHYBGCJHDV-UHFFFAOYSA-N
     RDKit          3D

 51 51  0  0  0  0  0  0  0  0999 V2000
  119.9670  128.0388   86.0384 C   0  0  0  0  0  0  0  0  0  0  0  0
  120.5780  126.8393   85.3305 C   0  0  0  0  0  0  0  0  0  0  0  0
  121.6298  126.1541   86.2028 C   0  0  0  0  0  0  0  0  0  0  0  0
  122.3744  125.0226   85.4886 C   0  0  0  0  0  0  0  0  0  0  0  0
  121.5378  123.8596   85.1668 N   0  0  0  0  0  0  0  0  0  0  0  0
  120.8330  123.8797   83.8823 C   0  0  0  0  0  0  0  0  0  0  0  0
  121.5613  123.0398   82.8298 C   0  0  0  0  0  0  0  0  0  0  0  0
  120.7204  122.7763   81.5799 C   0  0  0  0  0  0  0  0  0  0  0  0
  120.3572  124.0408   80.8170 C   0  0  0  0  0  0  0  0  0  0  0  0
  121.4412  122.6971   85.9298 C   0  0  0  0  0  0  0  0  0  0  0  0
  120.5082  121.9004   85.8674 O   0  0  0  0  0  0  0  0  0  0  0  0
  122.5367  122.3424   86.8434 C   0  0  0  0  0  0  0  0  0  0  0  0
  123.8319  122.2684   86.3193 C   0  0  0  0  0  0  0  0  0  0  0  0
  124.9043  121.8573   87.1310 C   0  0  0  0  0  0  0  0  0  0  0  0
  126.5229  121.8689   86.3847 S   0  0  0  0  0  6  0  0  0  0  0  0
  127.5124  121.5764   87.3955 O   0  0  0  0  0  0  0  0  0  0  0  0
  126.6119  123.1046   85.6310 O   0  0  0  0  0  0  0  0  0  0  0  0
  126.4650  120.5934   85.2670 N   0  0  0  0  0  0  0  0  0  0  0  0
  126.4132  119.2196   85.7900 C   0  0  0  0  0  0  0  0  0  0  0  0
  125.6561  120.7885   84.0518 C   0  0  0  0  0  0  0  0  0  0  0  0
  124.6697  121.5290   88.4692 C   0  0  0  0  0  0  0  0  0  0  0  0
  125.8735  121.0000   89.5844 Cl  0  0  0  0  0  0  0  0  0  0  0  0
  123.3609  121.5881   88.9763 C   0  0  0  0  0  0  0  0  0  0  0  0
  122.2925  121.9823   88.1670 C   0  0  0  0  0  0  0  0  0  0  0  0
  120.7141  122.0190   88.8623 Cl  0  0  0  0  0  0  0  0  0  0  0  0
  120.0388  127.8979   87.1270 H   0  0  0  0  0  0  0  0  0  0  0  0
  120.5104  128.9507   85.7501 H   0  0  0  0  0  0  0  0  0  0  0  0
  118.9098  128.1353   85.7501 H   0  0  0  0  0  0  0  0  0  0  0  0
  119.7815  126.1176   85.0966 H   0  0  0  0  0  0  0  0  0  0  0  0
  121.0671  127.1920   84.4105 H   0  0  0  0  0  0  0  0  0  0  0  0
  122.3647  126.9090   86.5192 H   0  0  0  0  0  0  0  0  0  0  0  0
  121.0994  125.7044   87.0551 H   0  0  0  0  0  0  0  0  0  0  0  0
  122.7878  125.4203   84.5501 H   0  0  0  0  0  0  0  0  0  0  0  0
  123.1523  124.6698   86.1817 H   0  0  0  0  0  0  0  0  0  0  0  0
  119.8199  123.4751   84.0240 H   0  0  0  0  0  0  0  0  0  0  0  0
  120.7928  124.9198   83.5267 H   0  0  0  0  0  0  0  0  0  0  0  0
  122.4759  123.5723   82.5297 H   0  0  0  0  0  0  0  0  0  0  0  0
  121.7817  122.0637   83.2866 H   0  0  0  0  0  0  0  0  0  0  0  0
  121.2903  122.1163   80.9093 H   0  0  0  0  0  0  0  0  0  0  0  0
  119.7782  122.3173   81.9139 H   0  0  0  0  0  0  0  0  0  0  0  0
  120.1260  124.8457   81.5302 H   0  0  0  0  0  0  0  0  0  0  0  0
  121.2047  124.3436   80.1844 H   0  0  0  0  0  0  0  0  0  0  0  0
  119.4782  123.8477   80.1844 H   0  0  0  0  0  0  0  0  0  0  0  0
  124.0123  122.5332   85.2670 H   0  0  0  0  0  0  0  0  0  0  0  0
  126.4142  119.2456   86.8897 H   0  0  0  0  0  0  0  0  0  0  0  0
  125.4959  118.7268   85.4357 H   0  0  0  0  0  0  0  0  0  0  0  0
  127.2909  118.6591   85.4357 H   0  0  0  0  0  0  0  0  0  0  0  0
  124.6228  121.0376   84.3352 H   0  0  0  0  0  0  0  0  0  0  0  0
  126.0811  121.6099   83.4563 H   0  0  0  0  0  0  0  0  0  0  0  0
  125.6601  119.8636   83.4563 H   0  0  0  0  0  0  0  0  0  0  0  0
  123.1744  121.3199   90.0267 H   0  0  0  0  0  0  0  0  0  0  0  0
  1  2  1  0
  2  3  1  0
  3  4  1  0
  4  5  1  0
  5  6  1  0
  6  7  1  0
  7  8  1  0
  8  9  1  0
  5 10  1  0
 10 11  2  0
 10 12  1  0
 12 13  2  0
 13 14  1  0
 14 15  1  0
 15 16  2  0
 15 17  2  0
 15 18  1  0
 18 19  1  0
 18 20  1  0
 14 21  2  0
 21 22  1  0
 21 23  1  0
 23 24  2  0
 24 25  1  0
 24 12  1  0
  1 26  1  0
  1 27  1  0
  1 28  1  0
  2 29  1  0
  2 30  1  0
  3 31  1  0
  3 32  1  0
  4 33  1  0
  4 34  1  0
  6 35  1  0
  6 36  1  0
  7 37  1  0
  7 38  1  0
  8 39  1  0
  8 40  1  0
  9 41  1  0
  9 42  1  0
  9 43  1  0
 13 44  1  0
 19 45  1  0
 19 46  1  0
 19 47  1  0
 20 48  1  0
 20 49  1  0
 20 50  1  0
 23 51  1  0
M  END
>  <loss>  (22) 
0.642896294593811

>  <score>  (22) 
0.84273362159729

$$$$
CMEGSHYBGCJHDV-UHFFFAOYSA-N
     RDKit          3D

 51 51  0  0  0  0  0  0  0  0999 V2000
  121.6963  128.1931   84.4164 C   0  0  0  0  0  0  0  0  0  0  0  0
  121.3228  127.0129   85.2989 C   0  0  0  0  0  0  0  0  0  0  0  0
  121.1664  125.7312   84.4824 C   0  0  0  0  0  0  0  0  0  0  0  0
  120.8413  124.5364   85.3806 C   0  0  0  0  0  0  0  0  0  0  0  0
  121.4417  123.3038   84.8694 N   0  0  0  0  0  0  0  0  0  0  0  0
  122.0129  123.3457   83.5177 C   0  0  0  0  0  0  0  0  0  0  0  0
  120.9635  123.0166   82.4533 C   0  0  0  0  0  0  0  0  0  0  0  0
  121.5684  122.7398   81.0761 C   0  0  0  0  0  0  0  0  0  0  0  0
  122.1905  123.9682   80.4307 C   0  0  0  0  0  0  0  0  0  0  0  0
  121.4461  122.1902   85.7049 C   0  0  0  0  0  0  0  0  0  0  0  0
  120.6238  121.2792   85.6613 O   0  0  0  0  0  0  0  0  0  0  0  0
  122.5242  122.0479   86.6933 C   0  0  0  0  0  0  0  0  0  0  0  0
  123.8034  121.7375   86.2219 C   0  0  0  0  0  0  0  0  0  0  0  0
  124.8610  121.5317   87.1252 C   0  0  0  0  0  0  0  0  0  0  0  0
  126.4662  121.2130   86.4187 S   0  0  0  0  0  6  0  0  0  0  0  0
  126.4357  119.9454   85.7266 O   0  0  0  0  0  0  0  0  0  0  0  0
  127.4274  121.4252   87.4832 O   0  0  0  0  0  0  0  0  0  0  0  0
  126.6687  122.4647   85.2906 N   0  0  0  0  0  0  0  0  0  0  0  0
  126.2365  122.2210   83.9060 C   0  0  0  0  0  0  0  0  0  0  0  0
  126.4173  123.8417   85.7493 C   0  0  0  0  0  0  0  0  0  0  0  0
  124.6274  121.6490   88.4987 C   0  0  0  0  0  0  0  0  0  0  0  0
  125.8124  121.4112   89.7283 Cl  0  0  0  0  0  0  0  0  0  0  0  0
  123.3336  121.9493   88.9576 C   0  0  0  0  0  0  0  0  0  0  0  0
  122.2798  122.1422   88.0615 C   0  0  0  0  0  0  0  0  0  0  0  0
  120.7187  122.5034   88.6987 Cl  0  0  0  0  0  0  0  0  0  0  0  0
  121.9681  129.0517   85.0481 H   0  0  0  0  0  0  0  0  0  0  0  0
  122.5519  127.9198   83.7814 H   0  0  0  0  0  0  0  0  0  0  0  0
  120.8393  128.4618   83.7814 H   0  0  0  0  0  0  0  0  0  0  0  0
  122.1125  126.8641   86.0501 H   0  0  0  0  0  0  0  0  0  0  0  0
  120.3597  127.2341   85.7821 H   0  0  0  0  0  0  0  0  0  0  0  0
  120.3512  125.8661   83.7564 H   0  0  0  0  0  0  0  0  0  0  0  0
  122.1171  125.5297   83.9671 H   0  0  0  0  0  0  0  0  0  0  0  0
  121.2306  124.7317   86.3906 H   0  0  0  0  0  0  0  0  0  0  0  0
  119.7492  124.4063   85.4009 H   0  0  0  0  0  0  0  0  0  0  0  0
  122.4093  124.3542   83.3286 H   0  0  0  0  0  0  0  0  0  0  0  0
  122.8122  122.5924   83.4579 H   0  0  0  0  0  0  0  0  0  0  0  0
  120.4060  122.1249   82.7759 H   0  0  0  0  0  0  0  0  0  0  0  0
  120.3120  123.8973   82.3531 H   0  0  0  0  0  0  0  0  0  0  0  0
  122.3479  121.9714   81.1860 H   0  0  0  0  0  0  0  0  0  0  0  0
  120.7480  122.4100   80.4218 H   0  0  0  0  0  0  0  0  0  0  0  0
  122.5393  124.6571   81.2141 H   0  0  0  0  0  0  0  0  0  0  0  0
  123.0423  123.6623   79.8056 H   0  0  0  0  0  0  0  0  0  0  0  0
  121.4398  124.4738   79.8056 H   0  0  0  0  0  0  0  0  0  0  0  0
  123.9831  121.6539   85.1399 H   0  0  0  0  0  0  0  0  0  0  0  0
  125.2783  121.6808   83.9107 H   0  0  0  0  0  0  0  0  0  0  0  0
  126.1130  123.1824   83.3859 H   0  0  0  0  0  0  0  0  0  0  0  0
  126.9951  121.6176   83.3859 H   0  0  0  0  0  0  0  0  0  0  0  0
  126.4127  123.8667   86.8490 H   0  0  0  0  0  0  0  0  0  0  0  0
  127.2093  124.5046   85.3707 H   0  0  0  0  0  0  0  0  0  0  0  0
  125.4422  124.1820   85.3707 H   0  0  0  0  0  0  0  0  0  0  0  0
  123.1480  122.0338   90.0385 H   0  0  0  0  0  0  0  0  0  0  0  0
  1  2  1  0
  2  3  1  0
  3  4  1  0
  4  5  1  0
  5  6  1  0
  6  7  1  0
  7  8  1  0
  8  9  1  0
  5 10  1  0
 10 11  2  0
 10 12  1  0
 12 13  2  0
 13 14  1  0
 14 15  1  0
 15 16  2  0
 15 17  2  0
 15 18  1  0
 18 19  1  0
 18 20  1  0
 14 21  2  0
 21 22  1  0
 21 23  1  0
 23 24  2  0
 24 25  1  0
 24 12  1  0
  1 26  1  0
  1 27  1  0
  1 28  1  0
  2 29  1  0
  2 30  1  0
  3 31  1  0
  3 32  1  0
  4 33  1  0
  4 34  1  0
  6 35  1  0
  6 36  1  0
  7 37  1  0
  7 38  1  0
  8 39  1  0
  8 40  1  0
  9 41  1  0
  9 42  1  0
  9 43  1  0
 13 44  1  0
 19 45  1  0
 19 46  1  0
 19 47  1  0
 20 48  1  0
 20 49  1  0
 20 50  1  0
 23 51  1  0
M  END
>  <loss>  (23) 
0.44594457745552063

>  <score>  (23) 
-1.3383598327636719

$$$$
CMEGSHYBGCJHDV-UHFFFAOYSA-N
     RDKit          3D

 51 51  0  0  0  0  0  0  0  0999 V2000
  118.1393  125.3992   87.8228 C   0  0  0  0  0  0  0  0  0  0  0  0
  118.4268  124.8211   86.4464 C   0  0  0  0  0  0  0  0  0  0  0  0
  119.8915  124.4103   86.3068 C   0  0  0  0  0  0  0  0  0  0  0  0
  120.1505  123.7233   84.9648 C   0  0  0  0  0  0  0  0  0  0  0  0
  121.4471  123.0451   84.9525 N   0  0  0  0  0  0  0  0  0  0  0  0
  122.5006  123.6263   84.1114 C   0  0  0  0  0  0  0  0  0  0  0  0
  122.0123  123.8605   82.6799 C   0  0  0  0  0  0  0  0  0  0  0  0
  122.7440  125.0024   81.9730 C   0  0  0  0  0  0  0  0  0  0  0  0
  122.4186  126.3741   82.5432 C   0  0  0  0  0  0  0  0  0  0  0  0
  121.5943  121.9139   85.7506 C   0  0  0  0  0  0  0  0  0  0  0  0
  120.8882  120.9116   85.6812 O   0  0  0  0  0  0  0  0  0  0  0  0
  122.6910  121.8719   86.7279 C   0  0  0  0  0  0  0  0  0  0  0  0
  124.0005  121.8738   86.2380 C   0  0  0  0  0  0  0  0  0  0  0  0
  125.0884  121.7757   87.1233 C   0  0  0  0  0  0  0  0  0  0  0  0
  126.7166  121.8604   86.4027 S   0  0  0  0  0  6  0  0  0  0  0  0
  127.6676  121.2609   87.3098 O   0  0  0  0  0  0  0  0  0  0  0  0
  126.9007  123.2339   85.9764 O   0  0  0  0  0  0  0  0  0  0  0  0
  126.5924  120.9043   85.0060 N   0  0  0  0  0  0  0  0  0  0  0  0
  126.4522  119.4502   85.1765 C   0  0  0  0  0  0  0  0  0  0  0  0
  125.8066  121.4410   83.8815 C   0  0  0  0  0  0  0  0  0  0  0  0
  124.8525  121.6859   88.4985 C   0  0  0  0  0  0  0  0  0  0  0  0
  126.0754  121.5439   89.7056 Cl  0  0  0  0  0  0  0  0  0  0  0  0
  123.5304  121.6728   88.9745 C   0  0  0  0  0  0  0  0  0  0  0  0
  122.4488  121.7581   88.0950 C   0  0  0  0  0  0  0  0  0  0  0  0
  120.8548  121.7315   88.7522 Cl  0  0  0  0  0  0  0  0  0  0  0  0
  118.4881  124.6978   88.5951 H   0  0  0  0  0  0  0  0  0  0  0  0
  118.6652  126.3589   87.9346 H   0  0  0  0  0  0  0  0  0  0  0  0
  117.0568  125.5590   87.9346 H   0  0  0  0  0  0  0  0  0  0  0  0
  117.7911  123.9371   86.2900 H   0  0  0  0  0  0  0  0  0  0  0  0
  118.2122  125.5954   85.6950 H   0  0  0  0  0  0  0  0  0  0  0  0
  120.5237  125.3077   86.3779 H   0  0  0  0  0  0  0  0  0  0  0  0
  120.1313  123.7006   87.1123 H   0  0  0  0  0  0  0  0  0  0  0  0
  119.3578  122.9827   84.7833 H   0  0  0  0  0  0  0  0  0  0  0  0
  120.1550  124.4920   84.1781 H   0  0  0  0  0  0  0  0  0  0  0  0
  122.8131  124.5882   84.5441 H   0  0  0  0  0  0  0  0  0  0  0  0
  123.3429  122.9196   84.0768 H   0  0  0  0  0  0  0  0  0  0  0  0
  122.1655  122.9367   82.1027 H   0  0  0  0  0  0  0  0  0  0  0  0
  120.9499  124.1396   82.7385 H   0  0  0  0  0  0  0  0  0  0  0  0
  123.8269  124.8337   82.0674 H   0  0  0  0  0  0  0  0  0  0  0  0
  122.4121  125.0002   80.9242 H   0  0  0  0  0  0  0  0  0  0  0  0
  122.4299  126.3264   83.6421 H   0  0  0  0  0  0  0  0  0  0  0  0
  123.1691  127.1013   82.2000 H   0  0  0  0  0  0  0  0  0  0  0  0
  121.4214  126.6867   82.2000 H   0  0  0  0  0  0  0  0  0  0  0  0
  124.1804  121.9523   85.1557 H   0  0  0  0  0  0  0  0  0  0  0  0
  126.4288  119.2073   86.2491 H   0  0  0  0  0  0  0  0  0  0  0  0
  125.5175  119.1140   84.7039 H   0  0  0  0  0  0  0  0  0  0  0  0
  127.3055  118.9417   84.7039 H   0  0  0  0  0  0  0  0  0  0  0  0
  124.9573  122.0210   84.2715 H   0  0  0  0  0  0  0  0  0  0  0  0
  126.4445  122.0930   83.2666 H   0  0  0  0  0  0  0  0  0  0  0  0
  125.4314  120.6096   83.2666 H   0  0  0  0  0  0  0  0  0  0  0  0
  123.3446  121.5941   90.0558 H   0  0  0  0  0  0  0  0  0  0  0  0
  1  2  1  0
  2  3  1  0
  3  4  1  0
  4  5  1  0
  5  6  1  0
  6  7  1  0
  7  8  1  0
  8  9  1  0
  5 10  1  0
 10 11  2  0
 10 12  1  0
 12 13  2  0
 13 14  1  0
 14 15  1  0
 15 16  2  0
 15 17  2  0
 15 18  1  0
 18 19  1  0
 18 20  1  0
 14 21  2  0
 21 22  1  0
 21 23  1  0
 23 24  2  0
 24 25  1  0
 24 12  1  0
  1 26  1  0
  1 27  1  0
  1 28  1  0
  2 29  1  0
  2 30  1  0
  3 31  1  0
  3 32  1  0
  4 33  1  0
  4 34  1  0
  6 35  1  0
  6 36  1  0
  7 37  1  0
  7 38  1  0
  8 39  1  0
  8 40  1  0
  9 41  1  0
  9 42  1  0
  9 43  1  0
 13 44  1  0
 19 45  1  0
 19 46  1  0
 19 47  1  0
 20 48  1  0
 20 49  1  0
 20 50  1  0
 23 51  1  0
M  END
>  <loss>  (24) 
0.7328158617019653

>  <score>  (24) 
-6.176977157592773

$$$$
CMEGSHYBGCJHDV-UHFFFAOYSA-N
     RDKit          3D

 51 51  0  0  0  0  0  0  0  0999 V2000
  121.4050  118.4722   82.3988 C   0  0  0  0  0  0  0  0  0  0  0  0
  120.9314  119.9167   82.4200 C   0  0  0  0  0  0  0  0  0  0  0  0
  121.6230  120.7160   83.5230 C   0  0  0  0  0  0  0  0  0  0  0  0
  121.0868  122.1477   83.5912 C   0  0  0  0  0  0  0  0  0  0  0  0
  121.5976  122.8579   84.7656 N   0  0  0  0  0  0  0  0  0  0  0  0
  122.4700  124.0127   84.5250 C   0  0  0  0  0  0  0  0  0  0  0  0
  121.7910  125.1513   83.7568 C   0  0  0  0  0  0  0  0  0  0  0  0
  120.8027  124.6685   82.6953 C   0  0  0  0  0  0  0  0  0  0  0  0
  119.9180  125.8051   82.2059 C   0  0  0  0  0  0  0  0  0  0  0  0
  121.3228  122.3019   86.0152 C   0  0  0  0  0  0  0  0  0  0  0  0
  120.1939  122.0616   86.4340 O   0  0  0  0  0  0  0  0  0  0  0  0
  122.4367  122.0034   86.9275 C   0  0  0  0  0  0  0  0  0  0  0  0
  123.6874  121.7333   86.3614 C   0  0  0  0  0  0  0  0  0  0  0  0
  124.7851  121.4663   87.1924 C   0  0  0  0  0  0  0  0  0  0  0  0
  126.3430  121.1034   86.4286 S   0  0  0  0  0  6  0  0  0  0  0  0
  127.3840  121.7176   87.2284 O   0  0  0  0  0  0  0  0  0  0  0  0
  126.3703  119.6862   86.1461 O   0  0  0  0  0  0  0  0  0  0  0  0
  126.2827  121.9785   84.9612 N   0  0  0  0  0  0  0  0  0  0  0  0
  126.4591  123.4411   85.0855 C   0  0  0  0  0  0  0  0  0  0  0  0
  127.1591  121.4101   83.9117 C   0  0  0  0  0  0  0  0  0  0  0  0
  124.6387  121.5047   88.5819 C   0  0  0  0  0  0  0  0  0  0  0  0
  125.9146  121.1848   89.6987 Cl  0  0  0  0  0  0  0  0  0  0  0  0
  123.3866  121.8083   89.1359 C   0  0  0  0  0  0  0  0  0  0  0  0
  122.2860  122.0642   88.3135 C   0  0  0  0  0  0  0  0  0  0  0  0
  120.7775  122.4370   89.0639 Cl  0  0  0  0  0  0  0  0  0  0  0  0
  121.5237  118.1101   83.4307 H   0  0  0  0  0  0  0  0  0  0  0  0
  120.6635  117.8509   81.8752 H   0  0  0  0  0  0  0  0  0  0  0  0
  122.3704  118.4105   81.8752 H   0  0  0  0  0  0  0  0  0  0  0  0
  121.1554  120.3807   81.4481 H   0  0  0  0  0  0  0  0  0  0  0  0
  119.8491  119.9225   82.6163 H   0  0  0  0  0  0  0  0  0  0  0  0
  121.4464  120.2207   84.4891 H   0  0  0  0  0  0  0  0  0  0  0  0
  122.6991  120.7584   83.2986 H   0  0  0  0  0  0  0  0  0  0  0  0
  121.3957  122.6884   82.6844 H   0  0  0  0  0  0  0  0  0  0  0  0
  119.9904  122.1018   83.6662 H   0  0  0  0  0  0  0  0  0  0  0  0
  122.8057  124.4023   85.4973 H   0  0  0  0  0  0  0  0  0  0  0  0
  123.3048  123.6593   83.9020 H   0  0  0  0  0  0  0  0  0  0  0  0
  121.2480  125.7813   84.4767 H   0  0  0  0  0  0  0  0  0  0  0  0
  122.5838  125.7045   83.2320 H   0  0  0  0  0  0  0  0  0  0  0  0
  121.3643  124.2590   81.8427 H   0  0  0  0  0  0  0  0  0  0  0  0
  120.1600  123.8971   83.1447 H   0  0  0  0  0  0  0  0  0  0  0  0
  119.4998  126.3423   83.0699 H   0  0  0  0  0  0  0  0  0  0  0  0
  120.5159  126.4991   81.5970 H   0  0  0  0  0  0  0  0  0  0  0  0
  119.0985  125.3957   81.5970 H   0  0  0  0  0  0  0  0  0  0  0  0
  123.8093  121.7304   85.2682 H   0  0  0  0  0  0  0  0  0  0  0  0
  126.4924  123.7173   86.1497 H   0  0  0  0  0  0  0  0  0  0  0  0
  127.3997  123.7396   84.5996 H   0  0  0  0  0  0  0  0  0  0  0  0
  125.6164  123.9547   84.5996 H   0  0  0  0  0  0  0  0  0  0  0  0
  127.9928  120.8693   84.3834 H   0  0  0  0  0  0  0  0  0  0  0  0
  126.5790  120.7158   83.2860 H   0  0  0  0  0  0  0  0  0  0  0  0
  127.5564  122.2228   83.2860 H   0  0  0  0  0  0  0  0  0  0  0  0
  123.2695  121.8454   90.2290 H   0  0  0  0  0  0  0  0  0  0  0  0
  1  2  1  0
  2  3  1  0
  3  4  1  0
  4  5  1  0
  5  6  1  0
  6  7  1  0
  7  8  1  0
  8  9  1  0
  5 10  1  0
 10 11  2  0
 10 12  1  0
 12 13  2  0
 13 14  1  0
 14 15  1  0
 15 16  2  0
 15 17  2  0
 15 18  1  0
 18 19  1  0
 18 20  1  0
 14 21  2  0
 21 22  1  0
 21 23  1  0
 23 24  2  0
 24 25  1  0
 24 12  1  0
  1 26  1  0
  1 27  1  0
  1 28  1  0
  2 29  1  0
  2 30  1  0
  3 31  1  0
  3 32  1  0
  4 33  1  0
  4 34  1  0
  6 35  1  0
  6 36  1  0
  7 37  1  0
  7 38  1  0
  8 39  1  0
  8 40  1  0
  9 41  1  0
  9 42  1  0
  9 43  1  0
 13 44  1  0
 19 45  1  0
 19 46  1  0
 19 47  1  0
 20 48  1  0
 20 49  1  0
 20 50  1  0
 23 51  1  0
M  END
>  <loss>  (25) 
0.4780084192752838

>  <score>  (25) 
-7.922553062438965

$$$$
