COXJPCXNCSKRJG-ONEGZZNKSA-N
     RDKit          3D

 26 26  0  0  0  0  0  0  0  0999 V2000
  119.6312  125.1012   83.5403 C   0  0  0  0  0  0  0  0  0  0  0  0
  119.9955  123.7159   83.8459 N   0  0  0  0  0  0  0  0  0  0  0  0
  119.5840  122.7382   82.8375 C   0  0  0  0  0  0  0  0  0  0  0  0
  120.9579  123.4346   84.8053 C   0  0  0  0  0  0  0  0  0  0  0  0
  121.1817  122.2857   85.4594 C   0  0  0  0  0  0  0  0  0  0  0  0
  122.2404  122.1304   86.4681 C   0  0  0  0  0  0  0  0  0  0  0  0
  123.5664  121.9424   86.0406 C   0  0  0  0  0  0  0  0  0  0  0  0
  124.6104  121.7669   86.9627 C   0  0  0  0  0  0  0  0  0  0  0  0
  125.9444  121.5840   86.4656 C   0  0  0  0  0  0  0  0  0  0  0  0
  127.0149  121.4383   86.0445 N   0  0  0  0  0  0  0  0  0  0  0  0
  124.3301  121.7706   88.3344 C   0  0  0  0  0  0  0  0  0  0  0  0
  125.3627  121.5956   89.3155 C   0  0  0  0  0  0  0  0  0  0  0  0
  126.1816  121.4554   90.1243 N   0  0  0  0  0  0  0  0  0  0  0  0
  123.0097  121.9462   88.7711 C   0  0  0  0  0  0  0  0  0  0  0  0
  121.9729  122.1207   87.8464 C   0  0  0  0  0  0  0  0  0  0  0  0
  120.2202  122.3611   88.5443 Br  0  0  0  0  0  0  0  0  0  0  0  0
  119.4850  125.6573   84.4781 H   0  0  0  0  0  0  0  0  0  0  0  0
  120.4361  125.5718   82.9567 H   0  0  0  0  0  0  0  0  0  0  0  0
  118.6989  125.1149   82.9567 H   0  0  0  0  0  0  0  0  0  0  0  0
  119.2038  121.8346   83.3365 H   0  0  0  0  0  0  0  0  0  0  0  0
  118.7917  123.1709   82.2090 H   0  0  0  0  0  0  0  0  0  0  0  0
  120.4474  122.4742   82.2090 H   0  0  0  0  0  0  0  0  0  0  0  0
  121.6283  124.2673   85.0645 H   0  0  0  0  0  0  0  0  0  0  0  0
  120.5439  121.4192   85.2308 H   0  0  0  0  0  0  0  0  0  0  0  0
  123.7901  121.9326   84.9637 H   0  0  0  0  0  0  0  0  0  0  0  0
  122.7865  121.9469   89.8482 H   0  0  0  0  0  0  0  0  0  0  0  0
  1  2  1  0
  2  3  1  0
  2  4  1  0
  4  5  2  0
  5  6  1  0
  6  7  2  0
  7  8  1  0
  8  9  1  0
  9 10  3  0
  8 11  2  0
 11 12  1  0
 12 13  3  0
 11 14  1  0
 14 15  2  0
 15 16  1  0
 15  6  1  0
  1 17  1  0
  1 18  1  0
  1 19  1  0
  3 20  1  0
  3 21  1  0
  3 22  1  0
  4 23  1  0
  5 24  1  0
  7 25  1  0
 14 26  1  0
M  END
>  <loss>  (1) 
0.31980136036872864

>  <score>  (1) 
8.307110786437988

$$$$
COXJPCXNCSKRJG-ONEGZZNKSA-N
     RDKit          3D

 26 26  0  0  0  0  0  0  0  0999 V2000
  119.6450  125.0976   83.5259 C   0  0  0  0  0  0  0  0  0  0  0  0
  120.0040  123.7122   83.8369 N   0  0  0  0  0  0  0  0  0  0  0  0
  119.5883  122.7320   82.8326 C   0  0  0  0  0  0  0  0  0  0  0  0
  120.9659  123.4310   84.7970 C   0  0  0  0  0  0  0  0  0  0  0  0
  121.1789  122.2870   85.4630 C   0  0  0  0  0  0  0  0  0  0  0  0
  122.2385  122.1313   86.4707 C   0  0  0  0  0  0  0  0  0  0  0  0
  123.5635  121.9394   86.0421 C   0  0  0  0  0  0  0  0  0  0  0  0
  124.6083  121.7634   86.9632 C   0  0  0  0  0  0  0  0  0  0  0  0
  125.9412  121.5765   86.4649 C   0  0  0  0  0  0  0  0  0  0  0  0
  127.0109  121.4275   86.0428 N   0  0  0  0  0  0  0  0  0  0  0  0
  124.3296  121.7705   88.3353 C   0  0  0  0  0  0  0  0  0  0  0  0
  125.3630  121.5951   89.3155 C   0  0  0  0  0  0  0  0  0  0  0  0
  126.1826  121.4546   90.1236 N   0  0  0  0  0  0  0  0  0  0  0  0
  123.0102  121.9499   88.7732 C   0  0  0  0  0  0  0  0  0  0  0  0
  121.9727  122.1250   87.8494 C   0  0  0  0  0  0  0  0  0  0  0  0
  120.2213  122.3707   88.5489 Br  0  0  0  0  0  0  0  0  0  0  0  0
  119.4998  125.6576   84.4615 H   0  0  0  0  0  0  0  0  0  0  0  0
  120.4521  125.5632   82.9413 H   0  0  0  0  0  0  0  0  0  0  0  0
  118.7133  125.1126   82.9413 H   0  0  0  0  0  0  0  0  0  0  0  0
  119.2062  121.8313   83.3355 H   0  0  0  0  0  0  0  0  0  0  0  0
  118.7962  123.1647   82.2038 H   0  0  0  0  0  0  0  0  0  0  0  0
  120.4499  122.4633   82.2038 H   0  0  0  0  0  0  0  0  0  0  0  0
  121.6459  124.2592   85.0453 H   0  0  0  0  0  0  0  0  0  0  0  0
  120.5311  121.4250   85.2456 H   0  0  0  0  0  0  0  0  0  0  0  0
  123.7859  121.9270   84.9649 H   0  0  0  0  0  0  0  0  0  0  0  0
  122.7883  121.9533   89.8506 H   0  0  0  0  0  0  0  0  0  0  0  0
  1  2  1  0
  2  3  1  0
  2  4  1  0
  4  5  2  0
  5  6  1  0
  6  7  2  0
  7  8  1  0
  8  9  1  0
  9 10  3  0
  8 11  2  0
 11 12  1  0
 12 13  3  0
 11 14  1  0
 14 15  2  0
 15 16  1  0
 15  6  1  0
  1 17  1  0
  1 18  1  0
  1 19  1  0
  3 20  1  0
  3 21  1  0
  3 22  1  0
  4 23  1  0
  5 24  1  0
  7 25  1  0
 14 26  1  0
M  END
>  <loss>  (2) 
0.3196553587913513

>  <score>  (2) 
8.293375015258789

$$$$
COXJPCXNCSKRJG-ONEGZZNKSA-N
     RDKit          3D

 26 26  0  0  0  0  0  0  0  0999 V2000
  118.7176  123.1171   83.7989 C   0  0  0  0  0  0  0  0  0  0  0  0
  120.0383  123.7479   83.8072 N   0  0  0  0  0  0  0  0  0  0  0  0
  120.4207  124.3848   82.5450 C   0  0  0  0  0  0  0  0  0  0  0  0
  120.9953  123.4571   84.7692 C   0  0  0  0  0  0  0  0  0  0  0  0
  121.1651  122.3272   85.4709 C   0  0  0  0  0  0  0  0  0  0  0  0
  122.2255  122.1592   86.4758 C   0  0  0  0  0  0  0  0  0  0  0  0
  123.5413  121.9176   86.0439 C   0  0  0  0  0  0  0  0  0  0  0  0
  124.5857  121.7279   86.9628 C   0  0  0  0  0  0  0  0  0  0  0  0
  125.9091  121.4896   86.4610 C   0  0  0  0  0  0  0  0  0  0  0  0
  126.9712  121.2989   86.0363 N   0  0  0  0  0  0  0  0  0  0  0  0
  124.3158  121.7715   88.3359 C   0  0  0  0  0  0  0  0  0  0  0  0
  125.3492  121.5839   89.3138 C   0  0  0  0  0  0  0  0  0  0  0  0
  126.1690  121.4345   90.1201 N   0  0  0  0  0  0  0  0  0  0  0  0
  123.0052  122.0006   88.7773 C   0  0  0  0  0  0  0  0  0  0  0  0
  121.9680  122.1891   87.8557 C   0  0  0  0  0  0  0  0  0  0  0  0
  120.2294  122.5032   88.5596 Br  0  0  0  0  0  0  0  0  0  0  0  0
  118.3815  122.9565   84.8339 H   0  0  0  0  0  0  0  0  0  0  0  0
  118.0023  123.7707   83.2783 H   0  0  0  0  0  0  0  0  0  0  0  0
  118.7765  122.1498   83.2783 H   0  0  0  0  0  0  0  0  0  0  0  0
  120.9765  125.3106   82.7551 H   0  0  0  0  0  0  0  0  0  0  0  0
  121.0565  123.6989   81.9660 H   0  0  0  0  0  0  0  0  0  0  0  0
  119.5164  124.6235   81.9660 H   0  0  0  0  0  0  0  0  0  0  0  0
  121.7120  124.2631   84.9855 H   0  0  0  0  0  0  0  0  0  0  0  0
  120.4795  121.4871   85.2863 H   0  0  0  0  0  0  0  0  0  0  0  0
  123.7566  121.8764   84.9660 H   0  0  0  0  0  0  0  0  0  0  0  0
  122.7901  122.0327   89.8555 H   0  0  0  0  0  0  0  0  0  0  0  0
  1  2  1  0
  2  3  1  0
  2  4  1  0
  4  5  2  0
  5  6  1  0
  6  7  2  0
  7  8  1  0
  8  9  1  0
  9 10  3  0
  8 11  2  0
 11 12  1  0
 12 13  3  0
 11 14  1  0
 14 15  2  0
 15 16  1  0
 15  6  1  0
  1 17  1  0
  1 18  1  0
  1 19  1  0
  3 20  1  0
  3 21  1  0
  3 22  1  0
  4 23  1  0
  5 24  1  0
  7 25  1  0
 14 26  1  0
M  END
>  <loss>  (3) 
0.2999862730503082

>  <score>  (3) 
8.122811317443848

$$$$
COXJPCXNCSKRJG-ONEGZZNKSA-N
     RDKit          3D

 26 26  0  0  0  0  0  0  0  0999 V2000
  120.4476  124.4661   82.5274 C   0  0  0  0  0  0  0  0  0  0  0  0
  120.0833  123.7049   83.7244 N   0  0  0  0  0  0  0  0  0  0  0  0
  118.8183  122.9755   83.6245 C   0  0  0  0  0  0  0  0  0  0  0  0
  121.0339  123.4157   84.6933 C   0  0  0  0  0  0  0  0  0  0  0  0
  121.1176  122.3443   85.4950 C   0  0  0  0  0  0  0  0  0  0  0  0
  122.1834  122.1711   86.4932 C   0  0  0  0  0  0  0  0  0  0  0  0
  123.4989  121.9437   86.0527 C   0  0  0  0  0  0  0  0  0  0  0  0
  124.5486  121.7498   86.9646 C   0  0  0  0  0  0  0  0  0  0  0  0
  125.8714  121.5266   86.4543 C   0  0  0  0  0  0  0  0  0  0  0  0
  126.9328  121.3483   86.0227 N   0  0  0  0  0  0  0  0  0  0  0  0
  124.2845  121.7747   88.3393 C   0  0  0  0  0  0  0  0  0  0  0  0
  125.3234  121.5822   89.3104 C   0  0  0  0  0  0  0  0  0  0  0  0
  126.1477  121.4284   90.1113 N   0  0  0  0  0  0  0  0  0  0  0  0
  122.9744  121.9896   88.7892 C   0  0  0  0  0  0  0  0  0  0  0  0
  121.9318  122.1823   87.8745 C   0  0  0  0  0  0  0  0  0  0  0  0
  120.1943  122.4761   88.5897 Br  0  0  0  0  0  0  0  0  0  0  0  0
  120.9047  125.4212   82.8252 H   0  0  0  0  0  0  0  0  0  0  0  0
  121.1659  123.8866   81.9289 H   0  0  0  0  0  0  0  0  0  0  0  0
  119.5457  124.6620   81.9289 H   0  0  0  0  0  0  0  0  0  0  0  0
  118.4401  122.7574   84.6342 H   0  0  0  0  0  0  0  0  0  0  0  0
  118.0834  123.5885   83.0822 H   0  0  0  0  0  0  0  0  0  0  0  0
  118.9807  122.0324   83.0822 H   0  0  0  0  0  0  0  0  0  0  0  0
  121.8266  124.1677   84.8207 H   0  0  0  0  0  0  0  0  0  0  0  0
  120.3535  121.5585   85.4018 H   0  0  0  0  0  0  0  0  0  0  0  0
  123.7098  121.9172   84.9734 H   0  0  0  0  0  0  0  0  0  0  0  0
  122.7637  122.0070   89.8687 H   0  0  0  0  0  0  0  0  0  0  0  0
  1  2  1  0
  2  3  1  0
  2  4  1  0
  4  5  2  0
  5  6  1  0
  6  7  2  0
  7  8  1  0
  8  9  1  0
  9 10  3  0
  8 11  2  0
 11 12  1  0
 12 13  3  0
 11 14  1  0
 14 15  2  0
 15 16  1  0
 15  6  1  0
  1 17  1  0
  1 18  1  0
  1 19  1  0
  3 20  1  0
  3 21  1  0
  3 22  1  0
  4 23  1  0
  5 24  1  0
  7 25  1  0
 14 26  1  0
M  END
>  <loss>  (4) 
0.300586462020874

>  <score>  (4) 
8.037172317504883

$$$$
COXJPCXNCSKRJG-ONEGZZNKSA-N
     RDKit          3D

 26 26  0  0  0  0  0  0  0  0999 V2000
  118.6987  123.1363   83.7838 C   0  0  0  0  0  0  0  0  0  0  0  0
  120.0388  123.7245   83.7615 N   0  0  0  0  0  0  0  0  0  0  0  0
  120.4331  124.3012   82.4744 C   0  0  0  0  0  0  0  0  0  0  0  0
  120.9922  123.4394   84.7289 C   0  0  0  0  0  0  0  0  0  0  0  0
  121.1460  122.3217   85.4534 C   0  0  0  0  0  0  0  0  0  0  0  0
  122.2046  122.1588   86.4609 C   0  0  0  0  0  0  0  0  0  0  0  0
  123.5243  121.9329   86.0323 C   0  0  0  0  0  0  0  0  0  0  0  0
  124.5674  121.7485   86.9536 C   0  0  0  0  0  0  0  0  0  0  0  0
  125.8949  121.5264   86.4551 C   0  0  0  0  0  0  0  0  0  0  0  0
  126.9602  121.3489   86.0330 N   0  0  0  0  0  0  0  0  0  0  0  0
  124.2924  121.7817   88.3260 C   0  0  0  0  0  0  0  0  0  0  0  0
  125.3244  121.5991   89.3064 C   0  0  0  0  0  0  0  0  0  0  0  0
  126.1429  121.4534   90.1147 N   0  0  0  0  0  0  0  0  0  0  0  0
  122.9781  121.9952   88.7642 C   0  0  0  0  0  0  0  0  0  0  0  0
  121.9422  122.1783   87.8401 C   0  0  0  0  0  0  0  0  0  0  0  0
  120.1981  122.4710   88.5398 Br  0  0  0  0  0  0  0  0  0  0  0  0
  118.3775  122.9953   84.8264 H   0  0  0  0  0  0  0  0  0  0  0  0
  117.9948  123.8082   83.2709 H   0  0  0  0  0  0  0  0  0  0  0  0
  118.7167  122.1634   83.2709 H   0  0  0  0  0  0  0  0  0  0  0  0
  121.0463  125.1980   82.6469 H   0  0  0  0  0  0  0  0  0  0  0  0
  121.0160  123.5625   81.9047 H   0  0  0  0  0  0  0  0  0  0  0  0
  119.5332  124.5763   81.9047 H   0  0  0  0  0  0  0  0  0  0  0  0
  121.7207  124.2391   84.9283 H   0  0  0  0  0  0  0  0  0  0  0  0
  120.4481  121.4881   85.2863 H   0  0  0  0  0  0  0  0  0  0  0  0
  123.7436  121.8999   84.9549 H   0  0  0  0  0  0  0  0  0  0  0  0
  122.7590  122.0191   89.8419 H   0  0  0  0  0  0  0  0  0  0  0  0
  1  2  1  0
  2  3  1  0
  2  4  1  0
  4  5  2  0
  5  6  1  0
  6  7  2  0
  7  8  1  0
  8  9  1  0
  9 10  3  0
  8 11  2  0
 11 12  1  0
 12 13  3  0
 11 14  1  0
 14 15  2  0
 15 16  1  0
 15  6  1  0
  1 17  1  0
  1 18  1  0
  1 19  1  0
  3 20  1  0
  3 21  1  0
  3 22  1  0
  4 23  1  0
  5 24  1  0
  7 25  1  0
 14 26  1  0
M  END
>  <loss>  (5) 
0.3000165820121765

>  <score>  (5) 
8.02000617980957

$$$$
COXJPCXNCSKRJG-ONEGZZNKSA-N
     RDKit          3D

 26 26  0  0  0  0  0  0  0  0999 V2000
  118.6786  123.1242   83.8202 C   0  0  0  0  0  0  0  0  0  0  0  0
  120.0115  123.7287   83.8024 N   0  0  0  0  0  0  0  0  0  0  0  0
  120.3972  124.3233   82.5207 C   0  0  0  0  0  0  0  0  0  0  0  0
  120.9695  123.4452   84.7656 C   0  0  0  0  0  0  0  0  0  0  0  0
  121.1655  122.3068   85.4463 C   0  0  0  0  0  0  0  0  0  0  0  0
  122.2232  122.1481   86.4555 C   0  0  0  0  0  0  0  0  0  0  0  0
  123.5431  121.9193   86.0290 C   0  0  0  0  0  0  0  0  0  0  0  0
  124.5854  121.7388   86.9521 C   0  0  0  0  0  0  0  0  0  0  0  0
  125.9131  121.5135   86.4558 C   0  0  0  0  0  0  0  0  0  0  0  0
  126.9787  121.3333   86.0354 N   0  0  0  0  0  0  0  0  0  0  0  0
  124.3092  121.7787   88.3241 C   0  0  0  0  0  0  0  0  0  0  0  0
  125.3403  121.6002   89.3062 C   0  0  0  0  0  0  0  0  0  0  0  0
  126.1580  121.4579   90.1159 N   0  0  0  0  0  0  0  0  0  0  0  0
  122.9947  121.9950   88.7602 C   0  0  0  0  0  0  0  0  0  0  0  0
  121.9596  122.1743   87.8344 C   0  0  0  0  0  0  0  0  0  0  0  0
  120.2152  122.4714   88.5312 Br  0  0  0  0  0  0  0  0  0  0  0  0
  118.3562  122.9780   84.8617 H   0  0  0  0  0  0  0  0  0  0  0  0
  117.9680  123.7882   83.3062 H   0  0  0  0  0  0  0  0  0  0  0  0
  118.7099  122.1522   83.3062 H   0  0  0  0  0  0  0  0  0  0  0  0
  120.9877  125.2335   82.7017 H   0  0  0  0  0  0  0  0  0  0  0  0
  121.0003  123.6026   81.9489 H   0  0  0  0  0  0  0  0  0  0  0  0
  119.4934  124.5802   81.9489 H   0  0  0  0  0  0  0  0  0  0  0  0
  121.6622  124.2661   85.0030 H   0  0  0  0  0  0  0  0  0  0  0  0
  120.5046  121.4520   85.2402 H   0  0  0  0  0  0  0  0  0  0  0  0
  123.7633  121.8811   84.9520 H   0  0  0  0  0  0  0  0  0  0  0  0
  122.7747  122.0242   89.8375 H   0  0  0  0  0  0  0  0  0  0  0  0
  1  2  1  0
  2  3  1  0
  2  4  1  0
  4  5  2  0
  5  6  1  0
  6  7  2  0
  7  8  1  0
  8  9  1  0
  9 10  3  0
  8 11  2  0
 11 12  1  0
 12 13  3  0
 11 14  1  0
 14 15  2  0
 15 16  1  0
 15  6  1  0
  1 17  1  0
  1 18  1  0
  1 19  1  0
  3 20  1  0
  3 21  1  0
  3 22  1  0
  4 23  1  0
  5 24  1  0
  7 25  1  0
 14 26  1  0
M  END
>  <loss>  (6) 
0.29972323775291443

>  <score>  (6) 
8.008654594421387

$$$$
COXJPCXNCSKRJG-ONEGZZNKSA-N
     RDKit          3D

 26 26  0  0  0  0  0  0  0  0999 V2000
  120.3934  124.3467   82.4835 C   0  0  0  0  0  0  0  0  0  0  0  0
  120.0353  123.7349   83.7647 N   0  0  0  0  0  0  0  0  0  0  0  0
  118.7392  123.0515   83.7710 C   0  0  0  0  0  0  0  0  0  0  0  0
  120.9824  123.4497   84.7389 C   0  0  0  0  0  0  0  0  0  0  0  0
  121.1455  122.3241   85.4487 C   0  0  0  0  0  0  0  0  0  0  0  0
  122.2040  122.1599   86.4556 C   0  0  0  0  0  0  0  0  0  0  0  0
  123.5225  121.9301   86.0257 C   0  0  0  0  0  0  0  0  0  0  0  0
  124.5658  121.7447   86.9464 C   0  0  0  0  0  0  0  0  0  0  0  0
  125.8926  121.5187   86.4479 C   0  0  0  0  0  0  0  0  0  0  0  0
  126.9582  121.3385   86.0277 N   0  0  0  0  0  0  0  0  0  0  0  0
  124.2918  121.7812   88.3191 C   0  0  0  0  0  0  0  0  0  0  0  0
  125.3240  121.5981   89.2992 C   0  0  0  0  0  0  0  0  0  0  0  0
  126.1421  121.4528   90.1080 N   0  0  0  0  0  0  0  0  0  0  0  0
  122.9785  121.9993   88.7581 C   0  0  0  0  0  0  0  0  0  0  0  0
  121.9424  122.1835   87.8347 C   0  0  0  0  0  0  0  0  0  0  0  0
  120.1993  122.4838   88.5334 Br  0  0  0  0  0  0  0  0  0  0  0  0
  120.9414  125.2831   82.6648 H   0  0  0  0  0  0  0  0  0  0  0  0
  121.0290  123.6547   81.9116 H   0  0  0  0  0  0  0  0  0  0  0  0
  119.4787  124.5620   81.9116 H   0  0  0  0  0  0  0  0  0  0  0  0
  118.4188  122.8826   84.8096 H   0  0  0  0  0  0  0  0  0  0  0  0
  117.9941  123.6740   83.2540 H   0  0  0  0  0  0  0  0  0  0  0  0
  118.8318  122.0850   83.2540 H   0  0  0  0  0  0  0  0  0  0  0  0
  121.6962  124.2573   84.9582 H   0  0  0  0  0  0  0  0  0  0  0  0
  120.4563  121.4857   85.2696 H   0  0  0  0  0  0  0  0  0  0  0  0
  123.7406  121.8948   84.9481 H   0  0  0  0  0  0  0  0  0  0  0  0
  122.7604  122.0260   89.8360 H   0  0  0  0  0  0  0  0  0  0  0  0
  1  2  1  0
  2  3  1  0
  2  4  1  0
  4  5  2  0
  5  6  1  0
  6  7  2  0
  7  8  1  0
  8  9  1  0
  9 10  3  0
  8 11  2  0
 11 12  1  0
 12 13  3  0
 11 14  1  0
 14 15  2  0
 15 16  1  0
 15  6  1  0
  1 17  1  0
  1 18  1  0
  1 19  1  0
  3 20  1  0
  3 21  1  0
  3 22  1  0
  4 23  1  0
  5 24  1  0
  7 25  1  0
 14 26  1  0
M  END
>  <loss>  (7) 
0.3003942668437958

>  <score>  (7) 
8.011331558227539

$$$$
COXJPCXNCSKRJG-ONEGZZNKSA-N
     RDKit          3D

 26 26  0  0  0  0  0  0  0  0999 V2000
  120.4011  124.3380   82.4770 C   0  0  0  0  0  0  0  0  0  0  0  0
  120.0417  123.7333   83.7613 N   0  0  0  0  0  0  0  0  0  0  0  0
  118.7423  123.0563   83.7721 C   0  0  0  0  0  0  0  0  0  0  0  0
  120.9887  123.4475   84.7354 C   0  0  0  0  0  0  0  0  0  0  0  0
  121.1428  122.3267   85.4548 C   0  0  0  0  0  0  0  0  0  0  0  0
  122.2024  122.1612   86.4603 C   0  0  0  0  0  0  0  0  0  0  0  0
  123.5206  121.9329   86.0285 C   0  0  0  0  0  0  0  0  0  0  0  0
  124.5650  121.7463   86.9478 C   0  0  0  0  0  0  0  0  0  0  0  0
  125.8913  121.5221   86.4474 C   0  0  0  0  0  0  0  0  0  0  0  0
  126.9567  121.3434   86.0258 N   0  0  0  0  0  0  0  0  0  0  0  0
  124.2924  121.7800   88.3208 C   0  0  0  0  0  0  0  0  0  0  0  0
  125.3257  121.5955   89.2995 C   0  0  0  0  0  0  0  0  0  0  0  0
  126.1447  121.4491   90.1071 N   0  0  0  0  0  0  0  0  0  0  0  0
  122.9793  121.9965   88.7617 C   0  0  0  0  0  0  0  0  0  0  0  0
  121.9422  122.1819   87.8397 C   0  0  0  0  0  0  0  0  0  0  0  0
  120.1997  122.4798   88.5407 Br  0  0  0  0  0  0  0  0  0  0  0  0
  120.9558  125.2713   82.6537 H   0  0  0  0  0  0  0  0  0  0  0  0
  121.0308  123.6396   81.9063 H   0  0  0  0  0  0  0  0  0  0  0  0
  119.4867  124.5573   81.9063 H   0  0  0  0  0  0  0  0  0  0  0  0
  118.4239  122.8905   84.8118 H   0  0  0  0  0  0  0  0  0  0  0  0
  117.9988  123.6817   83.2562 H   0  0  0  0  0  0  0  0  0  0  0  0
  118.8287  122.0886   83.2562 H   0  0  0  0  0  0  0  0  0  0  0  0
  121.7110  124.2500   84.9456 H   0  0  0  0  0  0  0  0  0  0  0  0
  120.4449  121.4935   85.2851 H   0  0  0  0  0  0  0  0  0  0  0  0
  123.7376  121.9000   84.9506 H   0  0  0  0  0  0  0  0  0  0  0  0
  122.7623  122.0209   89.8398 H   0  0  0  0  0  0  0  0  0  0  0  0
  1  2  1  0
  2  3  1  0
  2  4  1  0
  4  5  2  0
  5  6  1  0
  6  7  2  0
  7  8  1  0
  8  9  1  0
  9 10  3  0
  8 11  2  0
 11 12  1  0
 12 13  3  0
 11 14  1  0
 14 15  2  0
 15 16  1  0
 15  6  1  0
  1 17  1  0
  1 18  1  0
  1 19  1  0
  3 20  1  0
  3 21  1  0
  3 22  1  0
  4 23  1  0
  5 24  1  0
  7 25  1  0
 14 26  1  0
M  END
>  <loss>  (8) 
0.30037522315979004

>  <score>  (8) 
8.01109790802002

$$$$
COXJPCXNCSKRJG-ONEGZZNKSA-N
     RDKit          3D

 26 26  0  0  0  0  0  0  0  0999 V2000
  120.4655  124.4560   82.5045 C   0  0  0  0  0  0  0  0  0  0  0  0
  120.0967  123.7046   83.7063 N   0  0  0  0  0  0  0  0  0  0  0  0
  118.8278  122.9814   83.6107 C   0  0  0  0  0  0  0  0  0  0  0  0
  121.0454  123.4164   84.6773 C   0  0  0  0  0  0  0  0  0  0  0  0
  121.1261  122.3471   85.4822 C   0  0  0  0  0  0  0  0  0  0  0  0
  122.1902  122.1748   86.4824 C   0  0  0  0  0  0  0  0  0  0  0  0
  123.5071  121.9507   86.0443 C   0  0  0  0  0  0  0  0  0  0  0  0
  124.5552  121.7578   86.9582 C   0  0  0  0  0  0  0  0  0  0  0  0
  125.8795  121.5379   86.4504 C   0  0  0  0  0  0  0  0  0  0  0  0
  126.9422  121.3624   86.0208 N   0  0  0  0  0  0  0  0  0  0  0  0
  124.2882  121.7804   88.3324 C   0  0  0  0  0  0  0  0  0  0  0  0
  125.3254  121.5888   89.3054 C   0  0  0  0  0  0  0  0  0  0  0  0
  126.1483  121.4357   90.1078 N   0  0  0  0  0  0  0  0  0  0  0  0
  122.9767  121.9921   88.7797 C   0  0  0  0  0  0  0  0  0  0  0  0
  121.9357  122.1838   87.8631 C   0  0  0  0  0  0  0  0  0  0  0  0
  120.1960  122.4731   88.5751 Br  0  0  0  0  0  0  0  0  0  0  0  0
  120.9328  125.4080   82.7964 H   0  0  0  0  0  0  0  0  0  0  0  0
  121.1766  123.8664   81.9073 H   0  0  0  0  0  0  0  0  0  0  0  0
  119.5641  124.6578   81.9073 H   0  0  0  0  0  0  0  0  0  0  0  0
  118.4510  122.7667   84.6216 H   0  0  0  0  0  0  0  0  0  0  0  0
  118.0946  123.5974   83.0693 H   0  0  0  0  0  0  0  0  0  0  0  0
  118.9840  122.0367   83.0693 H   0  0  0  0  0  0  0  0  0  0  0  0
  121.8392  124.1674   84.8039 H   0  0  0  0  0  0  0  0  0  0  0  0
  120.3608  121.5623   85.3900 H   0  0  0  0  0  0  0  0  0  0  0  0
  123.7202  121.9259   84.9655 H   0  0  0  0  0  0  0  0  0  0  0  0
  122.7637  122.0077   89.8588 H   0  0  0  0  0  0  0  0  0  0  0  0
  1  2  1  0
  2  3  1  0
  2  4  1  0
  4  5  2  0
  5  6  1  0
  6  7  2  0
  7  8  1  0
  8  9  1  0
  9 10  3  0
  8 11  2  0
 11 12  1  0
 12 13  3  0
 11 14  1  0
 14 15  2  0
 15 16  1  0
 15  6  1  0
  1 17  1  0
  1 18  1  0
  1 19  1  0
  3 20  1  0
  3 21  1  0
  3 22  1  0
  4 23  1  0
  5 24  1  0
  7 25  1  0
 14 26  1  0
M  END
>  <loss>  (9) 
0.30051907896995544

>  <score>  (9) 
7.987765312194824

$$$$
COXJPCXNCSKRJG-ONEGZZNKSA-N
     RDKit          3D

 26 26  0  0  0  0  0  0  0  0999 V2000
  118.8306  122.9910   83.6384 C   0  0  0  0  0  0  0  0  0  0  0  0
  120.0645  123.7617   83.8045 N   0  0  0  0  0  0  0  0  0  0  0  0
  120.4376  124.5701   82.6409 C   0  0  0  0  0  0  0  0  0  0  0  0
  121.0106  123.4449   84.7698 C   0  0  0  0  0  0  0  0  0  0  0  0
  121.1501  122.3098   85.4695 C   0  0  0  0  0  0  0  0  0  0  0  0
  122.2074  122.1131   86.4718 C   0  0  0  0  0  0  0  0  0  0  0  0
  123.5282  121.9080   86.0365 C   0  0  0  0  0  0  0  0  0  0  0  0
  124.5778  121.7371   86.9530 C   0  0  0  0  0  0  0  0  0  0  0  0
  125.9050  121.5264   86.4490 C   0  0  0  0  0  0  0  0  0  0  0  0
  126.9705  121.3561   86.0244 N   0  0  0  0  0  0  0  0  0  0  0  0
  124.3102  121.7780   88.3268 C   0  0  0  0  0  0  0  0  0  0  0  0
  125.3486  121.6079   89.3027 C   0  0  0  0  0  0  0  0  0  0  0  0
  126.1718  121.4730   90.1081 N   0  0  0  0  0  0  0  0  0  0  0  0
  122.9981  121.9923   88.7713 C   0  0  0  0  0  0  0  0  0  0  0  0
  121.9558  122.1621   87.8521 C   0  0  0  0  0  0  0  0  0  0  0  0
  120.2111  122.4352   88.5579 Br  0  0  0  0  0  0  0  0  0  0  0  0
  118.4219  122.7357   84.6272 H   0  0  0  0  0  0  0  0  0  0  0  0
  118.0957  123.5909   83.0816 H   0  0  0  0  0  0  0  0  0  0  0  0
  119.0473  122.0674   83.0816 H   0  0  0  0  0  0  0  0  0  0  0  0
  120.8760  125.5203   82.9799 H   0  0  0  0  0  0  0  0  0  0  0  0
  121.1739  124.0222   82.0346 H   0  0  0  0  0  0  0  0  0  0  0  0
  119.5429  124.7749   82.0346 H   0  0  0  0  0  0  0  0  0  0  0  0
  121.7459  124.2326   84.9908 H   0  0  0  0  0  0  0  0  0  0  0  0
  120.4417  121.4888   85.2852 H   0  0  0  0  0  0  0  0  0  0  0  0
  123.7433  121.8811   84.9581 H   0  0  0  0  0  0  0  0  0  0  0  0
  122.7858  122.0274   89.8501 H   0  0  0  0  0  0  0  0  0  0  0  0
  1  2  1  0
  2  3  1  0
  2  4  1  0
  4  5  2  0
  5  6  1  0
  6  7  2  0
  7  8  1  0
  8  9  1  0
  9 10  3  0
  8 11  2  0
 11 12  1  0
 12 13  3  0
 11 14  1  0
 14 15  2  0
 15 16  1  0
 15  6  1  0
  1 17  1  0
  1 18  1  0
  1 19  1  0
  3 20  1  0
  3 21  1  0
  3 22  1  0
  4 23  1  0
  5 24  1  0
  7 25  1  0
 14 26  1  0
M  END
>  <loss>  (10) 
0.30094611644744873

>  <score>  (10) 
7.95888614654541

$$$$
COXJPCXNCSKRJG-ONEGZZNKSA-N
     RDKit          3D

 26 26  0  0  0  0  0  0  0  0999 V2000
  118.7392  123.1165   83.7909 C   0  0  0  0  0  0  0  0  0  0  0  0
  120.0601  123.7478   83.8206 N   0  0  0  0  0  0  0  0  0  0  0  0
  120.4698  124.3600   82.5540 C   0  0  0  0  0  0  0  0  0  0  0  0
  121.0067  123.4381   84.7876 C   0  0  0  0  0  0  0  0  0  0  0  0
  121.1718  122.2938   85.4663 C   0  0  0  0  0  0  0  0  0  0  0  0
  122.2260  122.1063   86.4736 C   0  0  0  0  0  0  0  0  0  0  0  0
  123.5471  121.8909   86.0441 C   0  0  0  0  0  0  0  0  0  0  0  0
  124.5939  121.7281   86.9652 C   0  0  0  0  0  0  0  0  0  0  0  0
  125.9215  121.5061   86.4670 C   0  0  0  0  0  0  0  0  0  0  0  0
  126.9874  121.3263   86.0472 N   0  0  0  0  0  0  0  0  0  0  0  0
  124.3234  121.7880   88.3377 C   0  0  0  0  0  0  0  0  0  0  0  0
  125.3589  121.6269   89.3181 C   0  0  0  0  0  0  0  0  0  0  0  0
  126.1798  121.4995   90.1271 N   0  0  0  0  0  0  0  0  0  0  0  0
  123.0110  122.0128   88.7763 C   0  0  0  0  0  0  0  0  0  0  0  0
  121.9714  122.1743   87.8525 C   0  0  0  0  0  0  0  0  0  0  0  0
  120.2262  122.4630   88.5506 Br  0  0  0  0  0  0  0  0  0  0  0  0
  118.3896  122.9493   84.8204 H   0  0  0  0  0  0  0  0  0  0  0  0
  118.0306  123.7732   83.2651 H   0  0  0  0  0  0  0  0  0  0  0  0
  118.8053  122.1526   83.2651 H   0  0  0  0  0  0  0  0  0  0  0  0
  121.0711  125.2581   82.7585 H   0  0  0  0  0  0  0  0  0  0  0  0
  121.0694  123.6411   81.9764 H   0  0  0  0  0  0  0  0  0  0  0  0
  119.5767  124.6403   81.9764 H   0  0  0  0  0  0  0  0  0  0  0  0
  121.7184  124.2411   85.0300 H   0  0  0  0  0  0  0  0  0  0  0  0
  120.4876  121.4575   85.2602 H   0  0  0  0  0  0  0  0  0  0  0  0
  123.7645  121.8491   84.9666 H   0  0  0  0  0  0  0  0  0  0  0  0
  122.7965  122.0627   89.8540 H   0  0  0  0  0  0  0  0  0  0  0  0
  1  2  1  0
  2  3  1  0
  2  4  1  0
  4  5  2  0
  5  6  1  0
  6  7  2  0
  7  8  1  0
  8  9  1  0
  9 10  3  0
  8 11  2  0
 11 12  1  0
 12 13  3  0
 11 14  1  0
 14 15  2  0
 15 16  1  0
 15  6  1  0
  1 17  1  0
  1 18  1  0
  1 19  1  0
  3 20  1  0
  3 21  1  0
  3 22  1  0
  4 23  1  0
  5 24  1  0
  7 25  1  0
 14 26  1  0
M  END
>  <loss>  (11) 
0.30046340823173523

>  <score>  (11) 
7.9106597900390625

$$$$
COXJPCXNCSKRJG-ONEGZZNKSA-N
     RDKit          3D

 26 26  0  0  0  0  0  0  0  0999 V2000
  119.2432  122.6222   83.1305 C   0  0  0  0  0  0  0  0  0  0  0  0
  120.0806  123.6635   83.7278 N   0  0  0  0  0  0  0  0  0  0  0  0
  120.1286  124.9182   82.9738 C   0  0  0  0  0  0  0  0  0  0  0  0
  121.0337  123.3860   84.6975 C   0  0  0  0  0  0  0  0  0  0  0  0
  121.1303  122.3154   85.4988 C   0  0  0  0  0  0  0  0  0  0  0  0
  122.1971  122.1553   86.4981 C   0  0  0  0  0  0  0  0  0  0  0  0
  123.5130  121.9271   86.0592 C   0  0  0  0  0  0  0  0  0  0  0  0
  124.5637  121.7454   86.9724 C   0  0  0  0  0  0  0  0  0  0  0  0
  125.8869  121.5207   86.4637 C   0  0  0  0  0  0  0  0  0  0  0  0
  126.9485  121.3409   86.0333 N   0  0  0  0  0  0  0  0  0  0  0  0
  124.3003  121.7836   88.3470 C   0  0  0  0  0  0  0  0  0  0  0  0
  125.3403  121.6039   89.3193 C   0  0  0  0  0  0  0  0  0  0  0  0
  126.1654  121.4606   90.1213 N   0  0  0  0  0  0  0  0  0  0  0  0
  122.9898  121.9995   88.7953 C   0  0  0  0  0  0  0  0  0  0  0  0
  121.9462  122.1800   87.8793 C   0  0  0  0  0  0  0  0  0  0  0  0
  120.2083  122.4762   88.5925 Br  0  0  0  0  0  0  0  0  0  0  0  0
  118.7682  122.0315   83.9277 H   0  0  0  0  0  0  0  0  0  0  0  0
  118.4661  123.0891   82.5075 H   0  0  0  0  0  0  0  0  0  0  0  0
  119.8659  121.9634   82.5075 H   0  0  0  0  0  0  0  0  0  0  0  0
  120.1610  125.7658   83.6742 H   0  0  0  0  0  0  0  0  0  0  0  0
  121.0279  124.9312   82.3405 H   0  0  0  0  0  0  0  0  0  0  0  0
  119.2329  124.9999   82.3405 H   0  0  0  0  0  0  0  0  0  0  0  0
  121.8165  124.1481   84.8263 H   0  0  0  0  0  0  0  0  0  0  0  0
  120.3765  121.5198   85.4043 H   0  0  0  0  0  0  0  0  0  0  0  0
  123.7234  121.8901   84.9801 H   0  0  0  0  0  0  0  0  0  0  0  0
  122.7797  122.0273   89.8747 H   0  0  0  0  0  0  0  0  0  0  0  0
  1  2  1  0
  2  3  1  0
  2  4  1  0
  4  5  2  0
  5  6  1  0
  6  7  2  0
  7  8  1  0
  8  9  1  0
  9 10  3  0
  8 11  2  0
 11 12  1  0
 12 13  3  0
 11 14  1  0
 14 15  2  0
 15 16  1  0
 15  6  1  0
  1 17  1  0
  1 18  1  0
  1 19  1  0
  3 20  1  0
  3 21  1  0
  3 22  1  0
  4 23  1  0
  5 24  1  0
  7 25  1  0
 14 26  1  0
M  END
>  <loss>  (12) 
0.31846871972084045

>  <score>  (12) 
7.970219612121582

$$$$
COXJPCXNCSKRJG-ONEGZZNKSA-N
     RDKit          3D

 26 26  0  0  0  0  0  0  0  0999 V2000
  119.2424  122.6220   83.1304 C   0  0  0  0  0  0  0  0  0  0  0  0
  120.0799  123.6632   83.7276 N   0  0  0  0  0  0  0  0  0  0  0  0
  120.1280  124.9178   82.9736 C   0  0  0  0  0  0  0  0  0  0  0  0
  121.0332  123.3856   84.6972 C   0  0  0  0  0  0  0  0  0  0  0  0
  121.1298  122.3148   85.4983 C   0  0  0  0  0  0  0  0  0  0  0  0
  122.1967  122.1547   86.4975 C   0  0  0  0  0  0  0  0  0  0  0  0
  123.5126  121.9267   86.0586 C   0  0  0  0  0  0  0  0  0  0  0  0
  124.5634  121.7449   86.9718 C   0  0  0  0  0  0  0  0  0  0  0  0
  125.8865  121.5205   86.4629 C   0  0  0  0  0  0  0  0  0  0  0  0
  126.9482  121.3410   86.0325 N   0  0  0  0  0  0  0  0  0  0  0  0
  124.2999  121.7828   88.3463 C   0  0  0  0  0  0  0  0  0  0  0  0
  125.3399  121.6030   89.3186 C   0  0  0  0  0  0  0  0  0  0  0  0
  126.1651  121.4596   90.1205 N   0  0  0  0  0  0  0  0  0  0  0  0
  122.9894  121.9984   88.7947 C   0  0  0  0  0  0  0  0  0  0  0  0
  121.9458  122.1789   87.8788 C   0  0  0  0  0  0  0  0  0  0  0  0
  120.2079  122.4747   88.5921 Br  0  0  0  0  0  0  0  0  0  0  0  0
  118.7674  122.0314   83.9277 H   0  0  0  0  0  0  0  0  0  0  0  0
  118.4653  123.0889   82.5074 H   0  0  0  0  0  0  0  0  0  0  0  0
  119.8650  121.9630   82.5074 H   0  0  0  0  0  0  0  0  0  0  0  0
  120.1605  125.7655   83.6739 H   0  0  0  0  0  0  0  0  0  0  0  0
  121.0273  124.9308   82.3402 H   0  0  0  0  0  0  0  0  0  0  0  0
  119.2324  124.9996   82.3402 H   0  0  0  0  0  0  0  0  0  0  0  0
  121.8158  124.1477   84.8261 H   0  0  0  0  0  0  0  0  0  0  0  0
  120.3761  121.5192   85.4037 H   0  0  0  0  0  0  0  0  0  0  0  0
  123.7229  121.8900   84.9795 H   0  0  0  0  0  0  0  0  0  0  0  0
  122.7794  122.0259   89.8741 H   0  0  0  0  0  0  0  0  0  0  0  0
  1  2  1  0
  2  3  1  0
  2  4  1  0
  4  5  2  0
  5  6  1  0
  6  7  2  0
  7  8  1  0
  8  9  1  0
  9 10  3  0
  8 11  2  0
 11 12  1  0
 12 13  3  0
 11 14  1  0
 14 15  2  0
 15 16  1  0
 15  6  1  0
  1 17  1  0
  1 18  1  0
  1 19  1  0
  3 20  1  0
  3 21  1  0
  3 22  1  0
  4 23  1  0
  5 24  1  0
  7 25  1  0
 14 26  1  0
M  END
>  <loss>  (13) 
0.3184700906276703

>  <score>  (13) 
7.9700422286987305

$$$$
COXJPCXNCSKRJG-ONEGZZNKSA-N
     RDKit          3D

 26 26  0  0  0  0  0  0  0  0999 V2000
  120.1277  124.9180   82.9737 C   0  0  0  0  0  0  0  0  0  0  0  0
  120.0805  123.6627   83.7268 N   0  0  0  0  0  0  0  0  0  0  0  0
  119.2442  122.6211   83.1287 C   0  0  0  0  0  0  0  0  0  0  0  0
  121.0337  123.3854   84.6966 C   0  0  0  0  0  0  0  0  0  0  0  0
  121.1304  122.3147   85.4979 C   0  0  0  0  0  0  0  0  0  0  0  0
  122.1972  122.1549   86.4972 C   0  0  0  0  0  0  0  0  0  0  0  0
  123.5133  121.9272   86.0584 C   0  0  0  0  0  0  0  0  0  0  0  0
  124.5640  121.7457   86.9717 C   0  0  0  0  0  0  0  0  0  0  0  0
  125.8872  121.5217   86.4630 C   0  0  0  0  0  0  0  0  0  0  0  0
  126.9490  121.3424   86.0326 N   0  0  0  0  0  0  0  0  0  0  0  0
  124.3004  121.7835   88.3462 C   0  0  0  0  0  0  0  0  0  0  0  0
  125.3403  121.6040   89.3186 C   0  0  0  0  0  0  0  0  0  0  0  0
  126.1654  121.4608   90.1206 N   0  0  0  0  0  0  0  0  0  0  0  0
  122.9898  121.9988   88.7945 C   0  0  0  0  0  0  0  0  0  0  0  0
  121.9462  122.1791   87.8784 C   0  0  0  0  0  0  0  0  0  0  0  0
  120.2081  122.4745   88.5915 Br  0  0  0  0  0  0  0  0  0  0  0  0
  120.1595  125.7651   83.6746 H   0  0  0  0  0  0  0  0  0  0  0  0
  121.0270  124.9320   82.3404 H   0  0  0  0  0  0  0  0  0  0  0  0
  119.2320  124.9994   82.3404 H   0  0  0  0  0  0  0  0  0  0  0  0
  118.7693  122.0297   83.9254 H   0  0  0  0  0  0  0  0  0  0  0  0
  118.4670  123.0877   82.5056 H   0  0  0  0  0  0  0  0  0  0  0  0
  119.8677  121.9631   82.5056 H   0  0  0  0  0  0  0  0  0  0  0  0
  121.8163  124.1476   84.8254 H   0  0  0  0  0  0  0  0  0  0  0  0
  120.3768  121.5190   85.4033 H   0  0  0  0  0  0  0  0  0  0  0  0
  123.7237  121.8906   84.9793 H   0  0  0  0  0  0  0  0  0  0  0  0
  122.7796  122.0263   89.8738 H   0  0  0  0  0  0  0  0  0  0  0  0
  1  2  1  0
  2  3  1  0
  2  4  1  0
  4  5  2  0
  5  6  1  0
  6  7  2  0
  7  8  1  0
  8  9  1  0
  9 10  3  0
  8 11  2  0
 11 12  1  0
 12 13  3  0
 11 14  1  0
 14 15  2  0
 15 16  1  0
 15  6  1  0
  1 17  1  0
  1 18  1  0
  1 19  1  0
  3 20  1  0
  3 21  1  0
  3 22  1  0
  4 23  1  0
  5 24  1  0
  7 25  1  0
 14 26  1  0
M  END
>  <loss>  (14) 
0.3184673488140106

>  <score>  (14) 
7.966468811035156

$$$$
COXJPCXNCSKRJG-ONEGZZNKSA-N
     RDKit          3D

 26 26  0  0  0  0  0  0  0  0999 V2000
  118.7692  123.1319   83.7350 C   0  0  0  0  0  0  0  0  0  0  0  0
  120.0918  123.7591   83.7755 N   0  0  0  0  0  0  0  0  0  0  0  0
  120.5127  124.3722   82.5131 C   0  0  0  0  0  0  0  0  0  0  0  0
  121.0303  123.4446   84.7489 C   0  0  0  0  0  0  0  0  0  0  0  0
  121.1452  122.3233   85.4748 C   0  0  0  0  0  0  0  0  0  0  0  0
  122.1975  122.1273   86.4824 C   0  0  0  0  0  0  0  0  0  0  0  0
  123.5189  121.9123   86.0535 C   0  0  0  0  0  0  0  0  0  0  0  0
  124.5640  121.7415   86.9752 C   0  0  0  0  0  0  0  0  0  0  0  0
  125.8920  121.5204   86.4776 C   0  0  0  0  0  0  0  0  0  0  0  0
  126.9582  121.3416   86.0582 N   0  0  0  0  0  0  0  0  0  0  0  0
  124.2914  121.7927   88.3476 C   0  0  0  0  0  0  0  0  0  0  0  0
  125.3251  121.6232   89.3285 C   0  0  0  0  0  0  0  0  0  0  0  0
  126.1445  121.4890   90.1380 N   0  0  0  0  0  0  0  0  0  0  0  0
  122.9788  122.0170   88.7857 C   0  0  0  0  0  0  0  0  0  0  0  0
  121.9409  122.1866   87.8614 C   0  0  0  0  0  0  0  0  0  0  0  0
  120.1951  122.4737   88.5587 Br  0  0  0  0  0  0  0  0  0  0  0  0
  118.4121  122.9626   84.7616 H   0  0  0  0  0  0  0  0  0  0  0  0
  118.0662  123.7926   83.2066 H   0  0  0  0  0  0  0  0  0  0  0  0
  118.8358  122.1695   83.2066 H   0  0  0  0  0  0  0  0  0  0  0  0
  121.1238  125.2623   82.7237 H   0  0  0  0  0  0  0  0  0  0  0  0
  121.1056  123.6490   81.9340 H   0  0  0  0  0  0  0  0  0  0  0  0
  119.6248  124.6657   81.9340 H   0  0  0  0  0  0  0  0  0  0  0  0
  121.7823  124.2213   84.9522 H   0  0  0  0  0  0  0  0  0  0  0  0
  120.4194  121.5136   85.3089 H   0  0  0  0  0  0  0  0  0  0  0  0
  123.7379  121.8773   84.9761 H   0  0  0  0  0  0  0  0  0  0  0  0
  122.7626  122.0602   89.8634 H   0  0  0  0  0  0  0  0  0  0  0  0
  1  2  1  0
  2  3  1  0
  2  4  1  0
  4  5  2  0
  5  6  1  0
  6  7  2  0
  7  8  1  0
  8  9  1  0
  9 10  3  0
  8 11  2  0
 11 12  1  0
 12 13  3  0
 11 14  1  0
 14 15  2  0
 15 16  1  0
 15  6  1  0
  1 17  1  0
  1 18  1  0
  1 19  1  0
  3 20  1  0
  3 21  1  0
  3 22  1  0
  4 23  1  0
  5 24  1  0
  7 25  1  0
 14 26  1  0
M  END
>  <loss>  (15) 
0.30072665214538574

>  <score>  (15) 
7.876796722412109

$$$$
COXJPCXNCSKRJG-ONEGZZNKSA-N
     RDKit          3D

 26 26  0  0  0  0  0  0  0  0999 V2000
  118.7071  123.3154   83.8447 C   0  0  0  0  0  0  0  0  0  0  0  0
  120.1292  123.6185   83.6720 N   0  0  0  0  0  0  0  0  0  0  0  0
  120.4191  124.5960   82.6198 C   0  0  0  0  0  0  0  0  0  0  0  0
  121.0674  123.3543   84.6605 C   0  0  0  0  0  0  0  0  0  0  0  0
  121.1745  122.2772   85.4516 C   0  0  0  0  0  0  0  0  0  0  0  0
  122.2309  122.1297   86.4632 C   0  0  0  0  0  0  0  0  0  0  0  0
  123.5528  121.9079   86.0394 C   0  0  0  0  0  0  0  0  0  0  0  0
  124.5945  121.7385   86.9650 C   0  0  0  0  0  0  0  0  0  0  0  0
  125.9249  121.5201   86.4726 C   0  0  0  0  0  0  0  0  0  0  0  0
  126.9935  121.3460   86.0573 N   0  0  0  0  0  0  0  0  0  0  0  0
  124.3156  121.7830   88.3364 C   0  0  0  0  0  0  0  0  0  0  0  0
  125.3460  121.6162   89.3213 C   0  0  0  0  0  0  0  0  0  0  0  0
  126.1626  121.4840   90.1339 N   0  0  0  0  0  0  0  0  0  0  0  0
  122.9990  121.9932   88.7695 C   0  0  0  0  0  0  0  0  0  0  0  0
  121.9645  122.1615   87.8412 C   0  0  0  0  0  0  0  0  0  0  0  0
  120.2165  122.4521   88.5318 Br  0  0  0  0  0  0  0  0  0  0  0  0
  118.4706  123.2650   84.9178 H   0  0  0  0  0  0  0  0  0  0  0  0
  118.1040  124.1052   83.3730 H   0  0  0  0  0  0  0  0  0  0  0  0
  118.4783  122.3484   83.3730 H   0  0  0  0  0  0  0  0  0  0  0  0
  120.7034  125.5547   83.0781 H   0  0  0  0  0  0  0  0  0  0  0  0
  121.2468  124.2282   81.9956 H   0  0  0  0  0  0  0  0  0  0  0  0
  119.5246  124.7389   81.9956 H   0  0  0  0  0  0  0  0  0  0  0  0
  121.8265  124.1351   84.8159 H   0  0  0  0  0  0  0  0  0  0  0  0
  120.4387  121.4673   85.3387 H   0  0  0  0  0  0  0  0  0  0  0  0
  123.7749  121.8664   84.9629 H   0  0  0  0  0  0  0  0  0  0  0  0
  122.7770  122.0261   89.8463 H   0  0  0  0  0  0  0  0  0  0  0  0
  1  2  1  0
  2  3  1  0
  2  4  1  0
  4  5  2  0
  5  6  1  0
  6  7  2  0
  7  8  1  0
  8  9  1  0
  9 10  3  0
  8 11  2  0
 11 12  1  0
 12 13  3  0
 11 14  1  0
 14 15  2  0
 15 16  1  0
 15  6  1  0
  1 17  1  0
  1 18  1  0
  1 19  1  0
  3 20  1  0
  3 21  1  0
  3 22  1  0
  4 23  1  0
  5 24  1  0
  7 25  1  0
 14 26  1  0
M  END
>  <loss>  (16) 
0.30054131150245667

>  <score>  (16) 
7.849527359008789

$$$$
COXJPCXNCSKRJG-ONEGZZNKSA-N
     RDKit          3D

 26 26  0  0  0  0  0  0  0  0999 V2000
  118.6701  123.2948   83.8788 C   0  0  0  0  0  0  0  0  0  0  0  0
  120.0892  123.6079   83.6997 N   0  0  0  0  0  0  0  0  0  0  0  0
  120.3669  124.5915   82.6498 C   0  0  0  0  0  0  0  0  0  0  0  0
  121.0346  123.3460   84.6820 C   0  0  0  0  0  0  0  0  0  0  0  0
  121.1506  122.2683   85.4710 C   0  0  0  0  0  0  0  0  0  0  0  0
  122.2138  122.1236   86.4759 C   0  0  0  0  0  0  0  0  0  0  0  0
  123.5335  121.9054   86.0437 C   0  0  0  0  0  0  0  0  0  0  0  0
  124.5816  121.7387   86.9627 C   0  0  0  0  0  0  0  0  0  0  0  0
  125.9094  121.5240   86.4619 C   0  0  0  0  0  0  0  0  0  0  0  0
  126.9758  121.3527   86.0398 N   0  0  0  0  0  0  0  0  0  0  0  0
  124.3112  121.7823   88.3359 C   0  0  0  0  0  0  0  0  0  0  0  0
  125.3482  121.6182   89.3142 C   0  0  0  0  0  0  0  0  0  0  0  0
  126.1702  121.4881   90.1216 N   0  0  0  0  0  0  0  0  0  0  0  0
  122.9967  121.9889   88.7773 C   0  0  0  0  0  0  0  0  0  0  0  0
  121.9560  122.1545   87.8556 C   0  0  0  0  0  0  0  0  0  0  0  0
  120.2116  122.4403   88.5572 Br  0  0  0  0  0  0  0  0  0  0  0  0
  118.4387  123.2437   84.9530 H   0  0  0  0  0  0  0  0  0  0  0  0
  118.0593  124.0797   83.4090 H   0  0  0  0  0  0  0  0  0  0  0  0
  118.4464  122.3256   83.4090 H   0  0  0  0  0  0  0  0  0  0  0  0
  120.6384  125.5528   83.1105 H   0  0  0  0  0  0  0  0  0  0  0  0
  121.1998  124.2360   82.0253 H   0  0  0  0  0  0  0  0  0  0  0  0
  119.4711  124.7241   82.0253 H   0  0  0  0  0  0  0  0  0  0  0  0
  121.7916  124.1295   84.8337 H   0  0  0  0  0  0  0  0  0  0  0  0
  120.4172  121.4558   85.3615 H   0  0  0  0  0  0  0  0  0  0  0  0
  123.7489  121.8647   84.9658 H   0  0  0  0  0  0  0  0  0  0  0  0
  122.7815  122.0210   89.8555 H   0  0  0  0  0  0  0  0  0  0  0  0
  1  2  1  0
  2  3  1  0
  2  4  1  0
  4  5  2  0
  5  6  1  0
  6  7  2  0
  7  8  1  0
  8  9  1  0
  9 10  3  0
  8 11  2  0
 11 12  1  0
 12 13  3  0
 11 14  1  0
 14 15  2  0
 15 16  1  0
 15  6  1  0
  1 17  1  0
  1 18  1  0
  1 19  1  0
  3 20  1  0
  3 21  1  0
  3 22  1  0
  4 23  1  0
  5 24  1  0
  7 25  1  0
 14 26  1  0
M  END
>  <loss>  (17) 
0.3005765676498413

>  <score>  (17) 
7.844115734100342

$$$$
COXJPCXNCSKRJG-ONEGZZNKSA-N
     RDKit          3D

 26 26  0  0  0  0  0  0  0  0999 V2000
  118.7137  123.2555   83.8041 C   0  0  0  0  0  0  0  0  0  0  0  0
  120.1284  123.5990   83.6469 N   0  0  0  0  0  0  0  0  0  0  0  0
  120.3985  124.6078   82.6193 C   0  0  0  0  0  0  0  0  0  0  0  0
  121.0679  123.3361   84.6346 C   0  0  0  0  0  0  0  0  0  0  0  0
  121.1409  122.2883   85.4678 C   0  0  0  0  0  0  0  0  0  0  0  0
  122.2035  122.1380   86.4725 C   0  0  0  0  0  0  0  0  0  0  0  0
  123.5228  121.9174   86.0399 C   0  0  0  0  0  0  0  0  0  0  0  0
  124.5702  121.7454   86.9586 C   0  0  0  0  0  0  0  0  0  0  0  0
  125.8975  121.5284   86.4574 C   0  0  0  0  0  0  0  0  0  0  0  0
  126.9635  121.3554   86.0350 N   0  0  0  0  0  0  0  0  0  0  0  0
  124.2998  121.7860   88.3318 C   0  0  0  0  0  0  0  0  0  0  0  0
  125.3362  121.6165   89.3099 C   0  0  0  0  0  0  0  0  0  0  0  0
  126.1577  121.4820   90.1170 N   0  0  0  0  0  0  0  0  0  0  0  0
  122.9858  121.9950   88.7736 C   0  0  0  0  0  0  0  0  0  0  0  0
  121.9456  122.1659   87.8522 C   0  0  0  0  0  0  0  0  0  0  0  0
  120.2020  122.4546   88.5543 Br  0  0  0  0  0  0  0  0  0  0  0  0
  118.4677  123.1958   84.8746 H   0  0  0  0  0  0  0  0  0  0  0  0
  118.0935  124.0292   83.3280 H   0  0  0  0  0  0  0  0  0  0  0  0
  118.5173  122.2836   83.3280 H   0  0  0  0  0  0  0  0  0  0  0  0
  120.6543  125.5629   83.1013 H   0  0  0  0  0  0  0  0  0  0  0  0
  121.2396  124.2766   81.9925 H   0  0  0  0  0  0  0  0  0  0  0  0
  119.5045  124.7412   81.9925 H   0  0  0  0  0  0  0  0  0  0  0  0
  121.8604  124.0903   84.7492 H   0  0  0  0  0  0  0  0  0  0  0  0
  120.3710  121.5059   85.3965 H   0  0  0  0  0  0  0  0  0  0  0  0
  123.7382  121.8790   84.9619 H   0  0  0  0  0  0  0  0  0  0  0  0
  122.7705  122.0249   89.8519 H   0  0  0  0  0  0  0  0  0  0  0  0
  1  2  1  0
  2  3  1  0
  2  4  1  0
  4  5  2  0
  5  6  1  0
  6  7  2  0
  7  8  1  0
  8  9  1  0
  9 10  3  0
  8 11  2  0
 11 12  1  0
 12 13  3  0
 11 14  1  0
 14 15  2  0
 15 16  1  0
 15  6  1  0
  1 17  1  0
  1 18  1  0
  1 19  1  0
  3 20  1  0
  3 21  1  0
  3 22  1  0
  4 23  1  0
  5 24  1  0
  7 25  1  0
 14 26  1  0
M  END
>  <loss>  (18) 
0.3010604679584503

>  <score>  (18) 
7.832283020019531

$$$$
COXJPCXNCSKRJG-ONEGZZNKSA-N
     RDKit          3D

 26 26  0  0  0  0  0  0  0  0999 V2000
  120.4072  124.6809   82.6876 C   0  0  0  0  0  0  0  0  0  0  0  0
  120.1416  123.6360   83.6788 N   0  0  0  0  0  0  0  0  0  0  0  0
  118.7385  123.2320   83.7812 C   0  0  0  0  0  0  0  0  0  0  0  0
  121.0725  123.3473   84.6667 C   0  0  0  0  0  0  0  0  0  0  0  0
  121.1417  122.2749   85.4685 C   0  0  0  0  0  0  0  0  0  0  0  0
  122.1990  122.0925   86.4740 C   0  0  0  0  0  0  0  0  0  0  0  0
  123.5205  121.8826   86.0427 C   0  0  0  0  0  0  0  0  0  0  0  0
  124.5699  121.7251   86.9619 C   0  0  0  0  0  0  0  0  0  0  0  0
  125.8973  121.5090   86.4608 C   0  0  0  0  0  0  0  0  0  0  0  0
  126.9624  121.3348   86.0365 N   0  0  0  0  0  0  0  0  0  0  0  0
  124.3021  121.7851   88.3348 C   0  0  0  0  0  0  0  0  0  0  0  0
  125.3404  121.6297   89.3131 C   0  0  0  0  0  0  0  0  0  0  0  0
  126.1644  121.5074   90.1198 N   0  0  0  0  0  0  0  0  0  0  0  0
  122.9897  122.0051   88.7756 C   0  0  0  0  0  0  0  0  0  0  0  0
  121.9475  122.1614   87.8537 C   0  0  0  0  0  0  0  0  0  0  0  0
  120.2033  122.4447   88.5568 Br  0  0  0  0  0  0  0  0  0  0  0  0
  120.6467  125.6228   83.2029 H   0  0  0  0  0  0  0  0  0  0  0  0
  121.2577  124.3811   82.0577 H   0  0  0  0  0  0  0  0  0  0  0  0
  119.5168  124.8237   82.0577 H   0  0  0  0  0  0  0  0  0  0  0  0
  118.4567  123.1509   84.8414 H   0  0  0  0  0  0  0  0  0  0  0  0
  118.1036  123.9838   83.2896 H   0  0  0  0  0  0  0  0  0  0  0  0
  118.6007  122.2577   83.2896 H   0  0  0  0  0  0  0  0  0  0  0  0
  121.8608  124.1006   84.8116 H   0  0  0  0  0  0  0  0  0  0  0  0
  120.3718  121.4955   85.3696 H   0  0  0  0  0  0  0  0  0  0  0  0
  123.7363  121.8410   84.9649 H   0  0  0  0  0  0  0  0  0  0  0  0
  122.7771  122.0553   89.8537 H   0  0  0  0  0  0  0  0  0  0  0  0
  1  2  1  0
  2  3  1  0
  2  4  1  0
  4  5  2  0
  5  6  1  0
  6  7  2  0
  7  8  1  0
  8  9  1  0
  9 10  3  0
  8 11  2  0
 11 12  1  0
 12 13  3  0
 11 14  1  0
 14 15  2  0
 15 16  1  0
 15  6  1  0
  1 17  1  0
  1 18  1  0
  1 19  1  0
  3 20  1  0
  3 21  1  0
  3 22  1  0
  4 23  1  0
  5 24  1  0
  7 25  1  0
 14 26  1  0
M  END
>  <loss>  (19) 
0.301963210105896

>  <score>  (19) 
7.790104866027832

$$$$
COXJPCXNCSKRJG-ONEGZZNKSA-N
     RDKit          3D

 26 26  0  0  0  0  0  0  0  0999 V2000
  120.3971  124.6290   82.6185 C   0  0  0  0  0  0  0  0  0  0  0  0
  120.1544  123.6192   83.6507 N   0  0  0  0  0  0  0  0  0  0  0  0
  118.7431  123.2781   83.8476 C   0  0  0  0  0  0  0  0  0  0  0  0
  121.0895  123.3267   84.6341 C   0  0  0  0  0  0  0  0  0  0  0  0
  121.1326  122.2777   85.4679 C   0  0  0  0  0  0  0  0  0  0  0  0
  122.1915  122.0966   86.4714 C   0  0  0  0  0  0  0  0  0  0  0  0
  123.5114  121.8834   86.0371 C   0  0  0  0  0  0  0  0  0  0  0  0
  124.5625  121.7267   86.9543 C   0  0  0  0  0  0  0  0  0  0  0  0
  125.8886  121.5067   86.4514 C   0  0  0  0  0  0  0  0  0  0  0  0
  126.9532  121.3285   86.0277 N   0  0  0  0  0  0  0  0  0  0  0  0
  124.2975  121.7904   88.3278 C   0  0  0  0  0  0  0  0  0  0  0  0
  125.3376  121.6355   89.3044 C   0  0  0  0  0  0  0  0  0  0  0  0
  126.1622  121.5132   90.1104 N   0  0  0  0  0  0  0  0  0  0  0  0
  122.9864  122.0131   88.7711 C   0  0  0  0  0  0  0  0  0  0  0  0
  121.9425  122.1686   87.8511 C   0  0  0  0  0  0  0  0  0  0  0  0
  120.1993  122.4547   88.5556 Br  0  0  0  0  0  0  0  0  0  0  0  0
  120.6288  125.5927   83.0956 H   0  0  0  0  0  0  0  0  0  0  0  0
  121.2457  124.3165   81.9922 H   0  0  0  0  0  0  0  0  0  0  0  0
  119.4992  124.7363   81.9922 H   0  0  0  0  0  0  0  0  0  0  0  0
  118.5253  123.2255   84.9245 H   0  0  0  0  0  0  0  0  0  0  0  0
  118.1112  124.0494   83.3830 H   0  0  0  0  0  0  0  0  0  0  0  0
  118.5332  122.3034   83.3830 H   0  0  0  0  0  0  0  0  0  0  0  0
  121.9066  124.0549   84.7443 H   0  0  0  0  0  0  0  0  0  0  0  0
  120.3398  121.5183   85.3980 H   0  0  0  0  0  0  0  0  0  0  0  0
  123.7244  121.8385   84.9589 H   0  0  0  0  0  0  0  0  0  0  0  0
  122.7762  122.0660   89.8495 H   0  0  0  0  0  0  0  0  0  0  0  0
  1  2  1  0
  2  3  1  0
  2  4  1  0
  4  5  2  0
  5  6  1  0
  6  7  2  0
  7  8  1  0
  8  9  1  0
  9 10  3  0
  8 11  2  0
 11 12  1  0
 12 13  3  0
 11 14  1  0
 14 15  2  0
 15 16  1  0
 15  6  1  0
  1 17  1  0
  1 18  1  0
  1 19  1  0
  3 20  1  0
  3 21  1  0
  3 22  1  0
  4 23  1  0
  5 24  1  0
  7 25  1  0
 14 26  1  0
M  END
>  <loss>  (20) 
0.30237674713134766

>  <score>  (20) 
7.781298637390137

$$$$
COXJPCXNCSKRJG-ONEGZZNKSA-N
     RDKit          3D

 26 26  0  0  0  0  0  0  0  0999 V2000
  120.3955  124.6282   82.6218 C   0  0  0  0  0  0  0  0  0  0  0  0
  120.1571  123.6121   83.6489 N   0  0  0  0  0  0  0  0  0  0  0  0
  118.7475  123.2620   83.8420 C   0  0  0  0  0  0  0  0  0  0  0  0
  121.0925  123.3203   84.6323 C   0  0  0  0  0  0  0  0  0  0  0  0
  121.1319  122.2755   85.4715 C   0  0  0  0  0  0  0  0  0  0  0  0
  122.1917  122.0945   86.4741 C   0  0  0  0  0  0  0  0  0  0  0  0
  123.5113  121.8823   86.0388 C   0  0  0  0  0  0  0  0  0  0  0  0
  124.5632  121.7258   86.9552 C   0  0  0  0  0  0  0  0  0  0  0  0
  125.8891  121.5067   86.4513 C   0  0  0  0  0  0  0  0  0  0  0  0
  126.9535  121.3294   86.0268 N   0  0  0  0  0  0  0  0  0  0  0  0
  124.2992  121.7888   88.3289 C   0  0  0  0  0  0  0  0  0  0  0  0
  125.3400  121.6341   89.3047 C   0  0  0  0  0  0  0  0  0  0  0  0
  126.1652  121.5119   90.1100 N   0  0  0  0  0  0  0  0  0  0  0  0
  122.9882  122.0105   88.7732 C   0  0  0  0  0  0  0  0  0  0  0  0
  121.9436  122.1658   87.8541 C   0  0  0  0  0  0  0  0  0  0  0  0
  120.2008  122.4506   88.5598 Br  0  0  0  0  0  0  0  0  0  0  0  0
  120.6214  125.5908   83.1038 H   0  0  0  0  0  0  0  0  0  0  0  0
  121.2465  124.3233   81.9951 H   0  0  0  0  0  0  0  0  0  0  0  0
  119.4977  124.7337   81.9951 H   0  0  0  0  0  0  0  0  0  0  0  0
  118.5274  123.2073   84.9184 H   0  0  0  0  0  0  0  0  0  0  0  0
  118.1119  124.0295   83.3764 H   0  0  0  0  0  0  0  0  0  0  0  0
  118.5449  122.2862   83.3764 H   0  0  0  0  0  0  0  0  0  0  0  0
  121.9133  124.0451   84.7373 H   0  0  0  0  0  0  0  0  0  0  0  0
  120.3355  121.5195   85.4068 H   0  0  0  0  0  0  0  0  0  0  0  0
  123.7237  121.8380   84.9604 H   0  0  0  0  0  0  0  0  0  0  0  0
  122.7787  122.0629   89.8518 H   0  0  0  0  0  0  0  0  0  0  0  0
  1  2  1  0
  2  3  1  0
  2  4  1  0
  4  5  2  0
  5  6  1  0
  6  7  2  0
  7  8  1  0
  8  9  1  0
  9 10  3  0
  8 11  2  0
 11 12  1  0
 12 13  3  0
 11 14  1  0
 14 15  2  0
 15 16  1  0
 15  6  1  0
  1 17  1  0
  1 18  1  0
  1 19  1  0
  3 20  1  0
  3 21  1  0
  3 22  1  0
  4 23  1  0
  5 24  1  0
  7 25  1  0
 14 26  1  0
M  END
>  <loss>  (21) 
0.3023720979690552

>  <score>  (21) 
7.780362606048584

$$$$
COXJPCXNCSKRJG-ONEGZZNKSA-N
     RDKit          3D

 26 26  0  0  0  0  0  0  0  0999 V2000
  120.4356  124.5891   82.6162 C   0  0  0  0  0  0  0  0  0  0  0  0
  120.1417  123.6037   83.6591 N   0  0  0  0  0  0  0  0  0  0  0  0
  118.7254  123.2606   83.7954 C   0  0  0  0  0  0  0  0  0  0  0  0
  121.0729  123.3258   84.6500 C   0  0  0  0  0  0  0  0  0  0  0  0
  121.1414  122.2629   85.4644 C   0  0  0  0  0  0  0  0  0  0  0  0
  122.1991  122.0914   86.4715 C   0  0  0  0  0  0  0  0  0  0  0  0
  123.5217  121.8847   86.0421 C   0  0  0  0  0  0  0  0  0  0  0  0
  124.5713  121.7376   86.9628 C   0  0  0  0  0  0  0  0  0  0  0  0
  125.8999  121.5241   86.4637 C   0  0  0  0  0  0  0  0  0  0  0  0
  126.9659  121.3520   86.0410 N   0  0  0  0  0  0  0  0  0  0  0  0
  124.3025  121.8049   88.3352 C   0  0  0  0  0  0  0  0  0  0  0  0
  125.3410  121.6602   89.3149 C   0  0  0  0  0  0  0  0  0  0  0  0
  126.1651  121.5465   90.1227 N   0  0  0  0  0  0  0  0  0  0  0  0
  122.9890  122.0218   88.7739 C   0  0  0  0  0  0  0  0  0  0  0  0
  121.9465  122.1678   87.8505 C   0  0  0  0  0  0  0  0  0  0  0  0
  120.2008  122.4477   88.5511 Br  0  0  0  0  0  0  0  0  0  0  0  0
  120.7202  125.5435   83.0833 H   0  0  0  0  0  0  0  0  0  0  0  0
  121.2643  124.2253   81.9911 H   0  0  0  0  0  0  0  0  0  0  0  0
  119.5429  124.7386   81.9911 H   0  0  0  0  0  0  0  0  0  0  0  0
  118.4645  123.1974   84.8622 H   0  0  0  0  0  0  0  0  0  0  0  0
  118.1122  124.0362   83.3133 H   0  0  0  0  0  0  0  0  0  0  0  0
  118.5351  122.2904   83.3133 H   0  0  0  0  0  0  0  0  0  0  0  0
  121.8619  124.0801   84.7856 H   0  0  0  0  0  0  0  0  0  0  0  0
  120.3708  121.4831   85.3750 H   0  0  0  0  0  0  0  0  0  0  0  0
  123.7382  121.8373   84.9647 H   0  0  0  0  0  0  0  0  0  0  0  0
  122.7756  122.0778   89.8516 H   0  0  0  0  0  0  0  0  0  0  0  0
  1  2  1  0
  2  3  1  0
  2  4  1  0
  4  5  2  0
  5  6  1  0
  6  7  2  0
  7  8  1  0
  8  9  1  0
  9 10  3  0
  8 11  2  0
 11 12  1  0
 12 13  3  0
 11 14  1  0
 14 15  2  0
 15 16  1  0
 15  6  1  0
  1 17  1  0
  1 18  1  0
  1 19  1  0
  3 20  1  0
  3 21  1  0
  3 22  1  0
  4 23  1  0
  5 24  1  0
  7 25  1  0
 14 26  1  0
M  END
>  <loss>  (22) 
0.30184826254844666

>  <score>  (22) 
7.772068977355957

$$$$
COXJPCXNCSKRJG-ONEGZZNKSA-N
     RDKit          3D

 26 26  0  0  0  0  0  0  0  0999 V2000
  118.3767  122.4629   83.6699 C   0  0  0  0  0  0  0  0  0  0  0  0
  119.7333  123.0146   83.6674 N   0  0  0  0  0  0  0  0  0  0  0  0
  120.1207  123.6814   82.4234 C   0  0  0  0  0  0  0  0  0  0  0  0
  120.6636  122.6047   84.6122 C   0  0  0  0  0  0  0  0  0  0  0  0
  121.3059  123.3385   85.5324 C   0  0  0  0  0  0  0  0  0  0  0  0
  122.2675  122.7658   86.4861 C   0  0  0  0  0  0  0  0  0  0  0  0
  123.5795  122.5021   86.0553 C   0  0  0  0  0  0  0  0  0  0  0  0
  124.5418  121.9766   86.9322 C   0  0  0  0  0  0  0  0  0  0  0  0
  125.8634  121.7241   86.4327 C   0  0  0  0  0  0  0  0  0  0  0  0
  126.9251  121.5266   86.0103 N   0  0  0  0  0  0  0  0  0  0  0  0
  124.1957  121.7155   88.2635 C   0  0  0  0  0  0  0  0  0  0  0  0
  125.1434  121.1782   89.1975 C   0  0  0  0  0  0  0  0  0  0  0  0
  125.8937  120.7449   89.9682 N   0  0  0  0  0  0  0  0  0  0  0  0
  122.8933  121.9852   88.7063 C   0  0  0  0  0  0  0  0  0  0  0  0
  121.9382  122.5094   87.8267 C   0  0  0  0  0  0  0  0  0  0  0  0
  120.1987  122.8289   88.5260 Br  0  0  0  0  0  0  0  0  0  0  0  0
  118.0386  122.3255   84.7076 H   0  0  0  0  0  0  0  0  0  0  0  0
  117.6979  123.1565   83.1520 H   0  0  0  0  0  0  0  0  0  0  0  0
  118.3745  121.4925   83.1520 H   0  0  0  0  0  0  0  0  0  0  0  0
  120.6605  124.6106   82.6581 H   0  0  0  0  0  0  0  0  0  0  0  0
  120.7729  123.0162   81.8386 H   0  0  0  0  0  0  0  0  0  0  0  0
  119.2197  123.9184   81.8386 H   0  0  0  0  0  0  0  0  0  0  0  0
  120.9070  121.5320   84.6053 H   0  0  0  0  0  0  0  0  0  0  0  0
  121.1042  124.4190   85.5759 H   0  0  0  0  0  0  0  0  0  0  0  0
  123.8573  122.7115   85.0118 H   0  0  0  0  0  0  0  0  0  0  0  0
  122.6196  121.7835   89.7524 H   0  0  0  0  0  0  0  0  0  0  0  0
  1  2  1  0
  2  3  1  0
  2  4  1  0
  4  5  2  0
  5  6  1  0
  6  7  2  0
  7  8  1  0
  8  9  1  0
  9 10  3  0
  8 11  2  0
 11 12  1  0
 12 13  3  0
 11 14  1  0
 14 15  2  0
 15 16  1  0
 15  6  1  0
  1 17  1  0
  1 18  1  0
  1 19  1  0
  3 20  1  0
  3 21  1  0
  3 22  1  0
  4 23  1  0
  5 24  1  0
  7 25  1  0
 14 26  1  0
M  END
>  <loss>  (23) 
0.3366309106349945

>  <score>  (23) 
6.67531681060791

$$$$
COXJPCXNCSKRJG-ONEGZZNKSA-N
     RDKit          3D

 26 26  0  0  0  0  0  0  0  0999 V2000
  118.5143  122.5107   83.5561 C   0  0  0  0  0  0  0  0  0  0  0  0
  119.8703  123.0641   83.5620 N   0  0  0  0  0  0  0  0  0  0  0  0
  120.2639  123.7328   82.3210 C   0  0  0  0  0  0  0  0  0  0  0  0
  120.7956  122.6543   84.5117 C   0  0  0  0  0  0  0  0  0  0  0  0
  121.2184  123.3017   85.6071 C   0  0  0  0  0  0  0  0  0  0  0  0
  122.2055  122.7386   86.5403 C   0  0  0  0  0  0  0  0  0  0  0  0
  123.5114  122.4905   86.0828 C   0  0  0  0  0  0  0  0  0  0  0  0
  124.4970  121.9746   86.9392 C   0  0  0  0  0  0  0  0  0  0  0  0
  125.8111  121.7379   86.4128 C   0  0  0  0  0  0  0  0  0  0  0  0
  126.8662  121.5530   85.9688 N   0  0  0  0  0  0  0  0  0  0  0  0
  124.1808  121.7079   88.2768 C   0  0  0  0  0  0  0  0  0  0  0  0
  125.1532  121.1800   89.1907 C   0  0  0  0  0  0  0  0  0  0  0  0
  125.9237  120.7542   89.9454 N   0  0  0  0  0  0  0  0  0  0  0  0
  122.8847  121.9621   88.7461 C   0  0  0  0  0  0  0  0  0  0  0  0
  121.9061  122.4767   87.8869 C   0  0  0  0  0  0  0  0  0  0  0  0
  120.1776  122.7754   88.6215 Br  0  0  0  0  0  0  0  0  0  0  0  0
  118.1709  122.3706   84.5917 H   0  0  0  0  0  0  0  0  0  0  0  0
  117.8374  123.2045   83.0360 H   0  0  0  0  0  0  0  0  0  0  0  0
  118.5161  121.5414   83.0360 H   0  0  0  0  0  0  0  0  0  0  0  0
  120.8086  124.6581   82.5600 H   0  0  0  0  0  0  0  0  0  0  0  0
  120.9135  123.0658   81.7352 H   0  0  0  0  0  0  0  0  0  0  0  0
  119.3655  123.9770   81.7352 H   0  0  0  0  0  0  0  0  0  0  0  0
  121.2429  121.6636   84.3429 H   0  0  0  0  0  0  0  0  0  0  0  0
  120.8078  124.3003   85.8174 H   0  0  0  0  0  0  0  0  0  0  0  0
  123.7657  122.7044   85.0342 H   0  0  0  0  0  0  0  0  0  0  0  0
  122.6344  121.7559   89.7973 H   0  0  0  0  0  0  0  0  0  0  0  0
  1  2  1  0
  2  3  1  0
  2  4  1  0
  4  5  2  0
  5  6  1  0
  6  7  2  0
  7  8  1  0
  8  9  1  0
  9 10  3  0
  8 11  2  0
 11 12  1  0
 12 13  3  0
 11 14  1  0
 14 15  2  0
 15 16  1  0
 15  6  1  0
  1 17  1  0
  1 18  1  0
  1 19  1  0
  3 20  1  0
  3 21  1  0
  3 22  1  0
  4 23  1  0
  5 24  1  0
  7 25  1  0
 14 26  1  0
M  END
>  <loss>  (24) 
0.3343338966369629

>  <score>  (24) 
6.6462721824646

$$$$
COXJPCXNCSKRJG-ONEGZZNKSA-N
     RDKit          3D

 26 26  0  0  0  0  0  0  0  0999 V2000
  118.3095  122.0896   83.5989 C   0  0  0  0  0  0  0  0  0  0  0  0
  119.4205  122.9773   83.9488 N   0  0  0  0  0  0  0  0  0  0  0  0
  119.6646  124.0584   82.9927 C   0  0  0  0  0  0  0  0  0  0  0  0
  120.3639  122.5899   84.8900 C   0  0  0  0  0  0  0  0  0  0  0  0
  121.4738  123.2325   85.2809 C   0  0  0  0  0  0  0  0  0  0  0  0
  122.3866  122.7050   86.3061 C   0  0  0  0  0  0  0  0  0  0  0  0
  123.7118  122.4022   85.9476 C   0  0  0  0  0  0  0  0  0  0  0  0
  124.6291  121.9174   86.8934 C   0  0  0  0  0  0  0  0  0  0  0  0
  125.9670  121.6216   86.4661 C   0  0  0  0  0  0  0  0  0  0  0  0
  127.0427  121.3881   86.1014 N   0  0  0  0  0  0  0  0  0  0  0  0
  124.2239  121.7376   88.2214 C   0  0  0  0  0  0  0  0  0  0  0  0
  125.1241  121.2445   89.2243 C   0  0  0  0  0  0  0  0  0  0  0  0
  125.8353  120.8481   90.0499 N   0  0  0  0  0  0  0  0  0  0  0  0
  122.9079  122.0471   88.5920 C   0  0  0  0  0  0  0  0  0  0  0  0
  121.9978  122.5303   87.6439 C   0  0  0  0  0  0  0  0  0  0  0  0
  120.2350  122.9092   88.2487 Br  0  0  0  0  0  0  0  0  0  0  0  0
  117.8377  121.7127   84.5183 H   0  0  0  0  0  0  0  0  0  0  0  0
  117.5674  122.6463   83.0077 H   0  0  0  0  0  0  0  0  0  0  0  0
  118.6887  121.2430   83.0077 H   0  0  0  0  0  0  0  0  0  0  0  0
  119.8750  124.9900   83.5385 H   0  0  0  0  0  0  0  0  0  0  0  0
  120.5273  123.8010   82.3606 H   0  0  0  0  0  0  0  0  0  0  0  0
  118.7751  124.1966   82.3606 H   0  0  0  0  0  0  0  0  0  0  0  0
  120.1753  121.6245   85.3823 H   0  0  0  0  0  0  0  0  0  0  0  0
  121.7127  124.1990   84.8131 H   0  0  0  0  0  0  0  0  0  0  0  0
  124.0361  122.5478   84.9066 H   0  0  0  0  0  0  0  0  0  0  0  0
  122.5877  121.9093   89.6353 H   0  0  0  0  0  0  0  0  0  0  0  0
  1  2  1  0
  2  3  1  0
  2  4  1  0
  4  5  2  0
  5  6  1  0
  6  7  2  0
  7  8  1  0
  8  9  1  0
  9 10  3  0
  8 11  2  0
 11 12  1  0
 12 13  3  0
 11 14  1  0
 14 15  2  0
 15 16  1  0
 15  6  1  0
  1 17  1  0
  1 18  1  0
  1 19  1  0
  3 20  1  0
  3 21  1  0
  3 22  1  0
  4 23  1  0
  5 24  1  0
  7 25  1  0
 14 26  1  0
M  END
>  <loss>  (25) 
0.34317201375961304

>  <score>  (25) 
6.68449592590332

$$$$
