CTRBXYMUCRFWGM-UHFFFAOYSA-N
     RDKit          3D

 30 30  0  0  0  0  0  0  0  0999 V2000
  126.3973  122.1679   83.6929 C   0  0  0  0  0  0  0  0  0  0  0  0
  125.5274  122.5820   84.7517 O   0  0  0  0  0  0  0  0  0  0  0  0
  124.3937  121.8397   84.8492 C   0  0  0  0  0  0  0  0  0  0  0  0
  123.8578  121.2501   83.9243 O   0  0  0  0  0  0  0  0  0  0  0  0
  123.8307  121.8707   86.2327 C   0  0  0  0  0  0  0  0  0  0  0  0
  124.7776  121.6993   87.2598 C   0  0  0  0  0  0  0  0  0  0  0  0
  124.3743  121.7368   88.5944 C   0  0  0  0  0  0  0  0  0  0  0  0
  125.3649  121.5606   89.6647 N   0  0  0  0  0  4  0  0  0  0  0  0
  124.9997  120.9848   90.6989 O   0  0  0  0  0  0  0  0  0  0  0  0
  126.5088  121.9922   89.4662 O   0  0  0  0  0  1  0  0  0  0  0  0
  123.0274  121.9163   88.9169 C   0  0  0  0  0  0  0  0  0  0  0  0
  122.0593  122.0732   87.9039 C   0  0  0  0  0  0  0  0  0  0  0  0
  120.6237  122.1477   88.3607 C   0  0  0  0  0  0  0  0  0  0  0  0
  122.4669  122.1124   86.5481 C   0  0  0  0  0  0  0  0  0  0  0  0
  121.5465  122.3426   85.4927 N   0  0  0  0  0  0  0  0  0  0  0  0
  121.1506  123.5866   85.0339 C   0  0  0  0  0  0  0  0  0  0  0  0
  119.7981  123.5556   84.3686 C   0  0  0  0  0  0  0  0  0  0  0  0
  121.8091  124.6189   85.0836 O   0  0  0  0  0  0  0  0  0  0  0  0
  127.3127  121.7322   84.1196 H   0  0  0  0  0  0  0  0  0  0  0  0
  125.8878  121.4158   83.0727 H   0  0  0  0  0  0  0  0  0  0  0  0
  126.6598  123.0377   83.0727 H   0  0  0  0  0  0  0  0  0  0  0  0
  125.8362  121.5357   87.0098 H   0  0  0  0  0  0  0  0  0  0  0  0
  122.7185  121.9354   89.9725 H   0  0  0  0  0  0  0  0  0  0  0  0
  120.5884  122.1495   89.4602 H   0  0  0  0  0  0  0  0  0  0  0  0
  120.1644  123.0709   87.9776 H   0  0  0  0  0  0  0  0  0  0  0  0
  120.0714  121.2770   87.9776 H   0  0  0  0  0  0  0  0  0  0  0  0
  121.1401  121.5166   85.0307 H   0  0  0  0  0  0  0  0  0  0  0  0
  119.0116  123.5375   85.1374 H   0  0  0  0  0  0  0  0  0  0  0  0
  119.6773  124.4512   83.7415 H   0  0  0  0  0  0  0  0  0  0  0  0
  119.7185  122.6554   83.7415 H   0  0  0  0  0  0  0  0  0  0  0  0
  1  2  1  0
  2  3  1  0
  3  4  2  0
  3  5  1  0
  5  6  2  0
  6  7  1  0
  7  8  1  0
  8  9  2  0
  8 10  1  0
  7 11  2  0
 11 12  1  0
 12 13  1  0
 12 14  2  0
 14 15  1  0
 15 16  1  0
 16 17  1  0
 16 18  2  0
 14  5  1  0
  1 19  1  0
  1 20  1  0
  1 21  1  0
  6 22  1  0
 11 23  1  0
 13 24  1  0
 13 25  1  0
 13 26  1  0
 15 27  1  0
 17 28  1  0
 17 29  1  0
 17 30  1  0
M  CHG  2   8   1  10  -1
M  END
>  <loss>  (1) 
0.2910694181919098

>  <score>  (1) 
7.241692543029785

$$$$
CTRBXYMUCRFWGM-UHFFFAOYSA-N
     RDKit          3D

 30 30  0  0  0  0  0  0  0  0999 V2000
  126.4075  122.1308   83.7181 C   0  0  0  0  0  0  0  0  0  0  0  0
  125.5225  122.5698   84.7542 O   0  0  0  0  0  0  0  0  0  0  0  0
  124.3882  121.8288   84.8541 C   0  0  0  0  0  0  0  0  0  0  0  0
  123.8506  121.2385   83.9306 O   0  0  0  0  0  0  0  0  0  0  0  0
  123.8269  121.8622   86.2382 C   0  0  0  0  0  0  0  0  0  0  0  0
  124.7743  121.6874   87.2643 C   0  0  0  0  0  0  0  0  0  0  0  0
  124.3727  121.7268   88.5993 C   0  0  0  0  0  0  0  0  0  0  0  0
  125.3638  121.5471   89.6685 N   0  0  0  0  0  4  0  0  0  0  0  0
  126.5215  121.9309   89.4516 O   0  0  0  0  0  0  0  0  0  0  0  0
  124.9810  121.0288   90.7263 O   0  0  0  0  0  1  0  0  0  0  0  0
  123.0268  121.9114   88.9233 C   0  0  0  0  0  0  0  0  0  0  0  0
  122.0582  122.0718   87.9113 C   0  0  0  0  0  0  0  0  0  0  0  0
  120.6234  122.1519   88.3698 C   0  0  0  0  0  0  0  0  0  0  0  0
  122.4644  122.1091   86.5551 C   0  0  0  0  0  0  0  0  0  0  0  0
  121.5436  122.3427   85.5007 N   0  0  0  0  0  0  0  0  0  0  0  0
  121.1668  123.5877   85.0291 C   0  0  0  0  0  0  0  0  0  0  0  0
  119.8112  123.5718   84.3695 C   0  0  0  0  0  0  0  0  0  0  0  0
  121.8428  124.6094   85.0642 O   0  0  0  0  0  0  0  0  0  0  0  0
  127.3066  121.6849   84.1684 H   0  0  0  0  0  0  0  0  0  0  0  0
  125.8989  121.3806   83.0949 H   0  0  0  0  0  0  0  0  0  0  0  0
  126.6971  122.9898   83.0949 H   0  0  0  0  0  0  0  0  0  0  0  0
  125.8320  121.5197   87.0131 H   0  0  0  0  0  0  0  0  0  0  0  0
  122.7192  121.9320   89.9792 H   0  0  0  0  0  0  0  0  0  0  0  0
  120.5894  122.1538   89.4693 H   0  0  0  0  0  0  0  0  0  0  0  0
  120.1673  123.0769   87.9872 H   0  0  0  0  0  0  0  0  0  0  0  0
  120.0672  121.2834   87.9872 H   0  0  0  0  0  0  0  0  0  0  0  0
  121.1216  121.5184   85.0499 H   0  0  0  0  0  0  0  0  0  0  0  0
  119.0279  123.5626   85.1417 H   0  0  0  0  0  0  0  0  0  0  0  0
  119.6978  124.4687   83.7428 H   0  0  0  0  0  0  0  0  0  0  0  0
  119.7189  122.6725   83.7428 H   0  0  0  0  0  0  0  0  0  0  0  0
  1  2  1  0
  2  3  1  0
  3  4  2  0
  3  5  1  0
  5  6  2  0
  6  7  1  0
  7  8  1  0
  8  9  2  0
  8 10  1  0
  7 11  2  0
 11 12  1  0
 12 13  1  0
 12 14  2  0
 14 15  1  0
 15 16  1  0
 16 17  1  0
 16 18  2  0
 14  5  1  0
  1 19  1  0
  1 20  1  0
  1 21  1  0
  6 22  1  0
 11 23  1  0
 13 24  1  0
 13 25  1  0
 13 26  1  0
 15 27  1  0
 17 28  1  0
 17 29  1  0
 17 30  1  0
M  CHG  2   8   1  10  -1
M  END
>  <loss>  (2) 
0.2911616861820221

>  <score>  (2) 
7.203264236450195

$$$$
CTRBXYMUCRFWGM-UHFFFAOYSA-N
     RDKit          3D

 30 30  0  0  0  0  0  0  0  0999 V2000
  126.4084  122.1301   83.7095 C   0  0  0  0  0  0  0  0  0  0  0  0
  125.5331  122.5608   84.7572 O   0  0  0  0  0  0  0  0  0  0  0  0
  124.3942  121.8265   84.8541 C   0  0  0  0  0  0  0  0  0  0  0  0
  123.8557  121.2391   83.9292 O   0  0  0  0  0  0  0  0  0  0  0  0
  123.8293  121.8635   86.2367 C   0  0  0  0  0  0  0  0  0  0  0  0
  124.7739  121.6910   87.2657 C   0  0  0  0  0  0  0  0  0  0  0  0
  124.3688  121.7338   88.5995 C   0  0  0  0  0  0  0  0  0  0  0  0
  125.3570  121.5564   89.6718 N   0  0  0  0  0  4  0  0  0  0  0  0
  124.9882  120.9839   90.7066 O   0  0  0  0  0  0  0  0  0  0  0  0
  126.5026  121.9837   89.4743 O   0  0  0  0  0  1  0  0  0  0  0  0
  123.0221  121.9197   88.9195 C   0  0  0  0  0  0  0  0  0  0  0  0
  122.0562  122.0779   87.9046 C   0  0  0  0  0  0  0  0  0  0  0  0
  120.6202  122.1595   88.3590 C   0  0  0  0  0  0  0  0  0  0  0  0
  122.4660  122.1117   86.5493 C   0  0  0  0  0  0  0  0  0  0  0  0
  121.5481  122.3429   85.4919 N   0  0  0  0  0  0  0  0  0  0  0  0
  121.1582  123.5872   85.0290 C   0  0  0  0  0  0  0  0  0  0  0  0
  119.8151  123.5565   84.3450 C   0  0  0  0  0  0  0  0  0  0  0  0
  121.8156  124.6197   85.0891 O   0  0  0  0  0  0  0  0  0  0  0  0
  127.3136  121.6846   84.1479 H   0  0  0  0  0  0  0  0  0  0  0  0
  125.8955  121.3815   83.0878 H   0  0  0  0  0  0  0  0  0  0  0  0
  126.6887  122.9932   83.0878 H   0  0  0  0  0  0  0  0  0  0  0  0
  125.8322  121.5223   87.0177 H   0  0  0  0  0  0  0  0  0  0  0  0
  122.7117  121.9430   89.9745 H   0  0  0  0  0  0  0  0  0  0  0  0
  120.5832  122.1617   89.4584 H   0  0  0  0  0  0  0  0  0  0  0  0
  120.1662  123.0850   87.9751 H   0  0  0  0  0  0  0  0  0  0  0  0
  120.0642  121.2916   87.9751 H   0  0  0  0  0  0  0  0  0  0  0  0
  121.1389  121.5173   85.0316 H   0  0  0  0  0  0  0  0  0  0  0  0
  119.0180  123.5382   85.1027 H   0  0  0  0  0  0  0  0  0  0  0  0
  119.7031  124.4523   83.7165 H   0  0  0  0  0  0  0  0  0  0  0  0
  119.7442  122.6565   83.7165 H   0  0  0  0  0  0  0  0  0  0  0  0
  1  2  1  0
  2  3  1  0
  3  4  2  0
  3  5  1  0
  5  6  2  0
  6  7  1  0
  7  8  1  0
  8  9  2  0
  8 10  1  0
  7 11  2  0
 11 12  1  0
 12 13  1  0
 12 14  2  0
 14 15  1  0
 15 16  1  0
 16 17  1  0
 16 18  2  0
 14  5  1  0
  1 19  1  0
  1 20  1  0
  1 21  1  0
  6 22  1  0
 11 23  1  0
 13 24  1  0
 13 25  1  0
 13 26  1  0
 15 27  1  0
 17 28  1  0
 17 29  1  0
 17 30  1  0
M  CHG  2   8   1  10  -1
M  END
>  <loss>  (3) 
0.29110652208328247

>  <score>  (3) 
7.200094223022461

$$$$
CTRBXYMUCRFWGM-UHFFFAOYSA-N
     RDKit          3D

 30 30  0  0  0  0  0  0  0  0999 V2000
  126.3989  122.1795   83.7231 C   0  0  0  0  0  0  0  0  0  0  0  0
  125.4799  122.6800   84.6967 O   0  0  0  0  0  0  0  0  0  0  0  0
  124.3461  121.9485   84.8225 C   0  0  0  0  0  0  0  0  0  0  0  0
  123.7711  121.3675   83.9126 O   0  0  0  0  0  0  0  0  0  0  0  0
  123.8741  121.9214   86.2427 C   0  0  0  0  0  0  0  0  0  0  0  0
  124.8070  121.7251   87.2765 C   0  0  0  0  0  0  0  0  0  0  0  0
  124.3756  121.6909   88.6039 C   0  0  0  0  0  0  0  0  0  0  0  0
  125.3495  121.4748   89.6828 N   0  0  0  0  0  4  0  0  0  0  0  0
  124.9403  120.9518   90.7288 O   0  0  0  0  0  0  0  0  0  0  0  0
  126.5208  121.8235   89.4819 O   0  0  0  0  0  1  0  0  0  0  0  0
  123.0276  121.8864   88.9143 C   0  0  0  0  0  0  0  0  0  0  0  0
  122.0800  122.1133   87.8958 C   0  0  0  0  0  0  0  0  0  0  0  0
  120.6768  122.4306   88.3473 C   0  0  0  0  0  0  0  0  0  0  0  0
  122.4916  122.0735   86.5425 C   0  0  0  0  0  0  0  0  0  0  0  0
  121.5793  122.2314   85.4638 N   0  0  0  0  0  0  0  0  0  0  0  0
  121.1023  123.4406   84.9908 C   0  0  0  0  0  0  0  0  0  0  0  0
  119.7371  123.3191   84.3625 C   0  0  0  0  0  0  0  0  0  0  0  0
  121.6577  124.5285   85.0948 O   0  0  0  0  0  0  0  0  0  0  0  0
  127.2550  121.7132   84.2326 H   0  0  0  0  0  0  0  0  0  0  0  0
  125.8949  121.4313   83.0937 H   0  0  0  0  0  0  0  0  0  0  0  0
  126.7540  123.0088   83.0937 H   0  0  0  0  0  0  0  0  0  0  0  0
  125.8739  121.5990   87.0400 H   0  0  0  0  0  0  0  0  0  0  0  0
  122.7022  121.8632   89.9648 H   0  0  0  0  0  0  0  0  0  0  0  0
  120.6384  122.4393   89.4465 H   0  0  0  0  0  0  0  0  0  0  0  0
  120.3823  123.4181   87.9623 H   0  0  0  0  0  0  0  0  0  0  0  0
  119.9860  121.6660   87.9623 H   0  0  0  0  0  0  0  0  0  0  0  0
  121.2464  121.3760   84.9965 H   0  0  0  0  0  0  0  0  0  0  0  0
  118.9747  123.2512   85.1525 H   0  0  0  0  0  0  0  0  0  0  0  0
  119.5408  124.2033   83.7384 H   0  0  0  0  0  0  0  0  0  0  0  0
  119.7000  122.4141   83.7384 H   0  0  0  0  0  0  0  0  0  0  0  0
  1  2  1  0
  2  3  1  0
  3  4  2  0
  3  5  1  0
  5  6  2  0
  6  7  1  0
  7  8  1  0
  8  9  2  0
  8 10  1  0
  7 11  2  0
 11 12  1  0
 12 13  1  0
 12 14  2  0
 14 15  1  0
 15 16  1  0
 16 17  1  0
 16 18  2  0
 14  5  1  0
  1 19  1  0
  1 20  1  0
  1 21  1  0
  6 22  1  0
 11 23  1  0
 13 24  1  0
 13 25  1  0
 13 26  1  0
 15 27  1  0
 17 28  1  0
 17 29  1  0
 17 30  1  0
M  CHG  2   8   1  10  -1
M  END
>  <loss>  (4) 
0.29290246963500977

>  <score>  (4) 
7.183543682098389

$$$$
CTRBXYMUCRFWGM-UHFFFAOYSA-N
     RDKit          3D

 30 30  0  0  0  0  0  0  0  0999 V2000
  126.4086  122.2012   83.7416 C   0  0  0  0  0  0  0  0  0  0  0  0
  125.4751  122.7026   84.7010 O   0  0  0  0  0  0  0  0  0  0  0  0
  124.3476  121.9610   84.8235 C   0  0  0  0  0  0  0  0  0  0  0  0
  123.7805  121.3749   83.9121 O   0  0  0  0  0  0  0  0  0  0  0  0
  123.8716  121.9300   86.2423 C   0  0  0  0  0  0  0  0  0  0  0  0
  124.8022  121.7353   87.2785 C   0  0  0  0  0  0  0  0  0  0  0  0
  124.3672  121.6974   88.6045 C   0  0  0  0  0  0  0  0  0  0  0  0
  125.3386  121.4828   89.6859 N   0  0  0  0  0  4  0  0  0  0  0  0
  124.9329  120.9376   90.7218 O   0  0  0  0  0  0  0  0  0  0  0  0
  126.5047  121.8548   89.4968 O   0  0  0  0  0  1  0  0  0  0  0  0
  123.0176  121.8878   88.9114 C   0  0  0  0  0  0  0  0  0  0  0  0
  122.0722  122.1130   87.8906 C   0  0  0  0  0  0  0  0  0  0  0  0
  120.6666  122.4249   88.3385 C   0  0  0  0  0  0  0  0  0  0  0  0
  122.4877  122.0769   86.5384 C   0  0  0  0  0  0  0  0  0  0  0  0
  121.5779  122.2335   85.4573 N   0  0  0  0  0  0  0  0  0  0  0  0
  121.1078  123.4424   84.9770 C   0  0  0  0  0  0  0  0  0  0  0  0
  119.7520  123.3205   84.3289 C   0  0  0  0  0  0  0  0  0  0  0  0
  121.6615  124.5305   85.0887 O   0  0  0  0  0  0  0  0  0  0  0  0
  127.2612  121.7432   84.2644 H   0  0  0  0  0  0  0  0  0  0  0  0
  125.9165  121.4460   83.1111 H   0  0  0  0  0  0  0  0  0  0  0  0
  126.7665  123.0285   83.1111 H   0  0  0  0  0  0  0  0  0  0  0  0
  125.8702  121.6131   87.0448 H   0  0  0  0  0  0  0  0  0  0  0  0
  122.6893  121.8617   89.9610 H   0  0  0  0  0  0  0  0  0  0  0  0
  120.6255  122.4340   89.4377 H   0  0  0  0  0  0  0  0  0  0  0  0
  120.3689  123.4109   87.9523 H   0  0  0  0  0  0  0  0  0  0  0  0
  119.9798  121.6572   87.9523 H   0  0  0  0  0  0  0  0  0  0  0  0
  121.2416  121.3772   84.9942 H   0  0  0  0  0  0  0  0  0  0  0  0
  118.9782  123.2509   85.1076 H   0  0  0  0  0  0  0  0  0  0  0  0
  119.5638  124.2054   83.7031 H   0  0  0  0  0  0  0  0  0  0  0  0
  119.7247  122.4163   83.7031 H   0  0  0  0  0  0  0  0  0  0  0  0
  1  2  1  0
  2  3  1  0
  3  4  2  0
  3  5  1  0
  5  6  2  0
  6  7  1  0
  7  8  1  0
  8  9  2  0
  8 10  1  0
  7 11  2  0
 11 12  1  0
 12 13  1  0
 12 14  2  0
 14 15  1  0
 15 16  1  0
 16 17  1  0
 16 18  2  0
 14  5  1  0
  1 19  1  0
  1 20  1  0
  1 21  1  0
  6 22  1  0
 11 23  1  0
 13 24  1  0
 13 25  1  0
 13 26  1  0
 15 27  1  0
 17 28  1  0
 17 29  1  0
 17 30  1  0
M  CHG  2   8   1  10  -1
M  END
>  <loss>  (5) 
0.29294344782829285

>  <score>  (5) 
7.1828436851501465

$$$$
CTRBXYMUCRFWGM-UHFFFAOYSA-N
     RDKit          3D

 30 30  0  0  0  0  0  0  0  0999 V2000
  126.4066  122.2123   83.7387 C   0  0  0  0  0  0  0  0  0  0  0  0
  125.4703  122.7105   84.6970 O   0  0  0  0  0  0  0  0  0  0  0  0
  124.3475  121.9622   84.8220 C   0  0  0  0  0  0  0  0  0  0  0  0
  123.7835  121.3704   83.9124 O   0  0  0  0  0  0  0  0  0  0  0  0
  123.8727  121.9316   86.2413 C   0  0  0  0  0  0  0  0  0  0  0  0
  124.8046  121.7394   87.2769 C   0  0  0  0  0  0  0  0  0  0  0  0
  124.3706  121.7018   88.6033 C   0  0  0  0  0  0  0  0  0  0  0  0
  125.3433  121.4899   89.6841 N   0  0  0  0  0  4  0  0  0  0  0  0
  126.5090  121.8623   89.4931 O   0  0  0  0  0  0  0  0  0  0  0  0
  124.9390  120.9465   90.7215 O   0  0  0  0  0  1  0  0  0  0  0  0
  123.0209  121.8902   88.9111 C   0  0  0  0  0  0  0  0  0  0  0  0
  122.0743  122.1128   87.8908 C   0  0  0  0  0  0  0  0  0  0  0  0
  120.6685  122.4226   88.3396 C   0  0  0  0  0  0  0  0  0  0  0  0
  122.4888  122.0763   86.5383 C   0  0  0  0  0  0  0  0  0  0  0  0
  121.5779  122.2303   85.4579 N   0  0  0  0  0  0  0  0  0  0  0  0
  121.1024  123.4378   84.9792 C   0  0  0  0  0  0  0  0  0  0  0  0
  119.7401  123.3137   84.3453 C   0  0  0  0  0  0  0  0  0  0  0  0
  121.6568  124.5264   85.0824 O   0  0  0  0  0  0  0  0  0  0  0  0
  127.2605  121.7579   84.2623 H   0  0  0  0  0  0  0  0  0  0  0  0
  125.9179  121.4550   83.1081 H   0  0  0  0  0  0  0  0  0  0  0  0
  126.7618  123.0407   83.1081 H   0  0  0  0  0  0  0  0  0  0  0  0
  125.8725  121.6189   87.0424 H   0  0  0  0  0  0  0  0  0  0  0  0
  122.6935  121.8644   89.9609 H   0  0  0  0  0  0  0  0  0  0  0  0
  120.6281  122.4315   89.4389 H   0  0  0  0  0  0  0  0  0  0  0  0
  120.3692  123.4082   87.9537 H   0  0  0  0  0  0  0  0  0  0  0  0
  119.9827  121.6540   87.9537 H   0  0  0  0  0  0  0  0  0  0  0  0
  121.2450  121.3731   84.9938 H   0  0  0  0  0  0  0  0  0  0  0  0
  118.9746  123.2440   85.1321 H   0  0  0  0  0  0  0  0  0  0  0  0
  119.5445  124.1978   83.7206 H   0  0  0  0  0  0  0  0  0  0  0  0
  119.7074  122.4089   83.7206 H   0  0  0  0  0  0  0  0  0  0  0  0
  1  2  1  0
  2  3  1  0
  3  4  2  0
  3  5  1  0
  5  6  2  0
  6  7  1  0
  7  8  1  0
  8  9  2  0
  8 10  1  0
  7 11  2  0
 11 12  1  0
 12 13  1  0
 12 14  2  0
 14 15  1  0
 15 16  1  0
 16 17  1  0
 16 18  2  0
 14  5  1  0
  1 19  1  0
  1 20  1  0
  1 21  1  0
  6 22  1  0
 11 23  1  0
 13 24  1  0
 13 25  1  0
 13 26  1  0
 15 27  1  0
 17 28  1  0
 17 29  1  0
 17 30  1  0
M  CHG  2   8   1  10  -1
M  END
>  <loss>  (6) 
0.2929348647594452

>  <score>  (6) 
7.16965389251709

$$$$
CTRBXYMUCRFWGM-UHFFFAOYSA-N
     RDKit          3D

 30 30  0  0  0  0  0  0  0  0999 V2000
  126.3755  122.2032   83.6682 C   0  0  0  0  0  0  0  0  0  0  0  0
  125.5147  122.6519   84.7174 O   0  0  0  0  0  0  0  0  0  0  0  0
  124.3599  121.9519   84.8301 C   0  0  0  0  0  0  0  0  0  0  0  0
  123.7734  121.3966   83.9117 O   0  0  0  0  0  0  0  0  0  0  0  0
  123.8797  121.9245   86.2476 C   0  0  0  0  0  0  0  0  0  0  0  0
  124.8066  121.7277   87.2867 C   0  0  0  0  0  0  0  0  0  0  0  0
  124.3676  121.6931   88.6116 C   0  0  0  0  0  0  0  0  0  0  0  0
  125.3351  121.4764   89.6960 N   0  0  0  0  0  4  0  0  0  0  0  0
  124.9336  120.9151   90.7245 O   0  0  0  0  0  0  0  0  0  0  0  0
  126.4953  121.8728   89.5176 O   0  0  0  0  0  1  0  0  0  0  0  0
  123.0178  121.8889   88.9143 C   0  0  0  0  0  0  0  0  0  0  0  0
  122.0762  122.1163   87.8904 C   0  0  0  0  0  0  0  0  0  0  0  0
  120.6705  122.4339   88.3339 C   0  0  0  0  0  0  0  0  0  0  0  0
  122.4955  122.0769   86.5395 C   0  0  0  0  0  0  0  0  0  0  0  0
  121.5895  122.2353   85.4556 N   0  0  0  0  0  0  0  0  0  0  0  0
  121.1188  123.4450   84.9775 C   0  0  0  0  0  0  0  0  0  0  0  0
  119.7470  123.3308   84.3627 C   0  0  0  0  0  0  0  0  0  0  0  0
  121.6848  124.5288   85.0680 O   0  0  0  0  0  0  0  0  0  0  0  0
  127.2713  121.7362   84.1033 H   0  0  0  0  0  0  0  0  0  0  0  0
  125.8436  121.4676   83.0469 H   0  0  0  0  0  0  0  0  0  0  0  0
  126.6739  123.0605   83.0469 H   0  0  0  0  0  0  0  0  0  0  0  0
  125.8748  121.6013   87.0563 H   0  0  0  0  0  0  0  0  0  0  0  0
  122.6864  121.8654   89.9629 H   0  0  0  0  0  0  0  0  0  0  0  0
  120.6262  122.4439   89.4330 H   0  0  0  0  0  0  0  0  0  0  0  0
  120.3778  123.4208   87.9462 H   0  0  0  0  0  0  0  0  0  0  0  0
  119.9820  121.6686   87.9462 H   0  0  0  0  0  0  0  0  0  0  0  0
  121.2564  121.3800   84.9884 H   0  0  0  0  0  0  0  0  0  0  0  0
  118.9919  123.2679   85.1600 H   0  0  0  0  0  0  0  0  0  0  0  0
  119.5496  124.2156   83.7397 H   0  0  0  0  0  0  0  0  0  0  0  0
  119.6987  122.4255   83.7397 H   0  0  0  0  0  0  0  0  0  0  0  0
  1  2  1  0
  2  3  1  0
  3  4  2  0
  3  5  1  0
  5  6  2  0
  6  7  1  0
  7  8  1  0
  8  9  2  0
  8 10  1  0
  7 11  2  0
 11 12  1  0
 12 13  1  0
 12 14  2  0
 14 15  1  0
 15 16  1  0
 16 17  1  0
 16 18  2  0
 14  5  1  0
  1 19  1  0
  1 20  1  0
  1 21  1  0
  6 22  1  0
 11 23  1  0
 13 24  1  0
 13 25  1  0
 13 26  1  0
 15 27  1  0
 17 28  1  0
 17 29  1  0
 17 30  1  0
M  CHG  2   8   1  10  -1
M  END
>  <loss>  (7) 
0.2931517958641052

>  <score>  (7) 
7.167154788970947

$$$$
CTRBXYMUCRFWGM-UHFFFAOYSA-N
     RDKit          3D

 30 30  0  0  0  0  0  0  0  0999 V2000
  126.3784  122.2031   83.6736 C   0  0  0  0  0  0  0  0  0  0  0  0
  125.5119  122.6563   84.7161 O   0  0  0  0  0  0  0  0  0  0  0  0
  124.3593  121.9528   84.8296 C   0  0  0  0  0  0  0  0  0  0  0  0
  123.7744  121.3948   83.9117 O   0  0  0  0  0  0  0  0  0  0  0  0
  123.8793  121.9252   86.2471 C   0  0  0  0  0  0  0  0  0  0  0  0
  124.8064  121.7283   87.2861 C   0  0  0  0  0  0  0  0  0  0  0  0
  124.3675  121.6936   88.6110 C   0  0  0  0  0  0  0  0  0  0  0  0
  125.3352  121.4768   89.6953 N   0  0  0  0  0  4  0  0  0  0  0  0
  124.9355  120.9095   90.7211 O   0  0  0  0  0  0  0  0  0  0  0  0
  126.4937  121.8793   89.5194 O   0  0  0  0  0  1  0  0  0  0  0  0
  123.0178  121.8892   88.9139 C   0  0  0  0  0  0  0  0  0  0  0  0
  122.0760  122.1166   87.8902 C   0  0  0  0  0  0  0  0  0  0  0  0
  120.6703  122.4340   88.3339 C   0  0  0  0  0  0  0  0  0  0  0  0
  122.4951  122.0774   86.5392 C   0  0  0  0  0  0  0  0  0  0  0  0
  121.5889  122.2359   85.4555 N   0  0  0  0  0  0  0  0  0  0  0  0
  121.1185  123.4456   84.9773 C   0  0  0  0  0  0  0  0  0  0  0  0
  119.7470  123.3314   84.3617 C   0  0  0  0  0  0  0  0  0  0  0  0
  121.6843  124.5294   85.0682 O   0  0  0  0  0  0  0  0  0  0  0  0
  127.2710  121.7362   84.1157 H   0  0  0  0  0  0  0  0  0  0  0  0
  125.8493  121.4662   83.0514 H   0  0  0  0  0  0  0  0  0  0  0  0
  126.6819  123.0579   83.0514 H   0  0  0  0  0  0  0  0  0  0  0  0
  125.8745  121.6021   87.0555 H   0  0  0  0  0  0  0  0  0  0  0  0
  122.6865  121.8655   89.9626 H   0  0  0  0  0  0  0  0  0  0  0  0
  120.6262  122.4439   89.4330 H   0  0  0  0  0  0  0  0  0  0  0  0
  120.3774  123.4208   87.9463 H   0  0  0  0  0  0  0  0  0  0  0  0
  119.9818  121.6686   87.9463 H   0  0  0  0  0  0  0  0  0  0  0  0
  121.2555  121.3805   84.9885 H   0  0  0  0  0  0  0  0  0  0  0  0
  118.9914  123.2684   85.1586 H   0  0  0  0  0  0  0  0  0  0  0  0
  119.5499  124.2162   83.7386 H   0  0  0  0  0  0  0  0  0  0  0  0
  119.6990  122.4261   83.7386 H   0  0  0  0  0  0  0  0  0  0  0  0
  1  2  1  0
  2  3  1  0
  3  4  2  0
  3  5  1  0
  5  6  2  0
  6  7  1  0
  7  8  1  0
  8  9  2  0
  8 10  1  0
  7 11  2  0
 11 12  1  0
 12 13  1  0
 12 14  2  0
 14 15  1  0
 15 16  1  0
 16 17  1  0
 16 18  2  0
 14  5  1  0
  1 19  1  0
  1 20  1  0
  1 21  1  0
  6 22  1  0
 11 23  1  0
 13 24  1  0
 13 25  1  0
 13 26  1  0
 15 27  1  0
 17 28  1  0
 17 29  1  0
 17 30  1  0
M  CHG  2   8   1  10  -1
M  END
>  <loss>  (8) 
0.29313090443611145

>  <score>  (8) 
7.165648460388184

$$$$
CTRBXYMUCRFWGM-UHFFFAOYSA-N
     RDKit          3D

 30 30  0  0  0  0  0  0  0  0999 V2000
  126.3946  122.0995   83.7127 C   0  0  0  0  0  0  0  0  0  0  0  0
  125.4480  122.6287   84.6438 O   0  0  0  0  0  0  0  0  0  0  0  0
  124.3431  121.8628   84.8130 C   0  0  0  0  0  0  0  0  0  0  0  0
  123.7762  121.2296   83.9335 O   0  0  0  0  0  0  0  0  0  0  0  0
  123.8762  121.8928   86.2349 C   0  0  0  0  0  0  0  0  0  0  0  0
  124.8075  121.7024   87.2714 C   0  0  0  0  0  0  0  0  0  0  0  0
  124.3831  121.7360   88.6010 C   0  0  0  0  0  0  0  0  0  0  0  0
  125.3585  121.5480   89.6838 N   0  0  0  0  0  4  0  0  0  0  0  0
  124.9612  121.0108   90.7270 O   0  0  0  0  0  0  0  0  0  0  0  0
  126.5173  121.9410   89.4918 O   0  0  0  0  0  1  0  0  0  0  0  0
  123.0328  121.9217   88.9076 C   0  0  0  0  0  0  0  0  0  0  0  0
  122.0782  122.0859   87.8836 C   0  0  0  0  0  0  0  0  0  0  0  0
  120.6366  122.1587   88.3195 C   0  0  0  0  0  0  0  0  0  0  0  0
  122.5061  122.1310   86.5356 C   0  0  0  0  0  0  0  0  0  0  0  0
  121.6067  122.3560   85.4579 N   0  0  0  0  0  0  0  0  0  0  0  0
  121.1521  123.5943   85.0414 C   0  0  0  0  0  0  0  0  0  0  0  0
  119.8151  123.5177   84.3489 C   0  0  0  0  0  0  0  0  0  0  0  0
  121.7521  124.6583   85.1455 O   0  0  0  0  0  0  0  0  0  0  0  0
  127.2271  121.6340   84.2607 H   0  0  0  0  0  0  0  0  0  0  0  0
  125.9043  121.3446   83.0804 H   0  0  0  0  0  0  0  0  0  0  0  0
  126.7809  122.9125   83.0804 H   0  0  0  0  0  0  0  0  0  0  0  0
  125.8674  121.5275   87.0351 H   0  0  0  0  0  0  0  0  0  0  0  0
  122.7111  121.9398   89.9594 H   0  0  0  0  0  0  0  0  0  0  0  0
  120.5854  122.1613   89.4183 H   0  0  0  0  0  0  0  0  0  0  0  0
  120.1816  123.0810   87.9291 H   0  0  0  0  0  0  0  0  0  0  0  0
  120.0910  121.2870   87.9291 H   0  0  0  0  0  0  0  0  0  0  0  0
  121.2658  121.5300   84.9457 H   0  0  0  0  0  0  0  0  0  0  0  0
  119.0143  123.4719   85.1017 H   0  0  0  0  0  0  0  0  0  0  0  0
  119.6764  124.4094   83.7199 H   0  0  0  0  0  0  0  0  0  0  0  0
  119.7791  122.6160   83.7199 H   0  0  0  0  0  0  0  0  0  0  0  0
  1  2  1  0
  2  3  1  0
  3  4  2  0
  3  5  1  0
  5  6  2  0
  6  7  1  0
  7  8  1  0
  8  9  2  0
  8 10  1  0
  7 11  2  0
 11 12  1  0
 12 13  1  0
 12 14  2  0
 14 15  1  0
 15 16  1  0
 16 17  1  0
 16 18  2  0
 14  5  1  0
  1 19  1  0
  1 20  1  0
  1 21  1  0
  6 22  1  0
 11 23  1  0
 13 24  1  0
 13 25  1  0
 13 26  1  0
 15 27  1  0
 17 28  1  0
 17 29  1  0
 17 30  1  0
M  CHG  2   8   1  10  -1
M  END
>  <loss>  (9) 
0.2937804162502289

>  <score>  (9) 
7.167989253997803

$$$$
CTRBXYMUCRFWGM-UHFFFAOYSA-N
     RDKit          3D

 30 30  0  0  0  0  0  0  0  0999 V2000
  126.4105  122.2131   83.7428 C   0  0  0  0  0  0  0  0  0  0  0  0
  125.4617  122.7126   84.6880 O   0  0  0  0  0  0  0  0  0  0  0  0
  124.3491  121.9503   84.8185 C   0  0  0  0  0  0  0  0  0  0  0  0
  123.7947  121.3418   83.9138 O   0  0  0  0  0  0  0  0  0  0  0  0
  123.8722  121.9270   86.2372 C   0  0  0  0  0  0  0  0  0  0  0  0
  124.8012  121.7304   87.2746 C   0  0  0  0  0  0  0  0  0  0  0  0
  124.3652  121.6998   88.6005 C   0  0  0  0  0  0  0  0  0  0  0  0
  125.3349  121.4833   89.6831 N   0  0  0  0  0  4  0  0  0  0  0  0
  126.5029  121.8493   89.4939 O   0  0  0  0  0  0  0  0  0  0  0  0
  124.9259  120.9427   90.7202 O   0  0  0  0  0  1  0  0  0  0  0  0
  123.0166  121.8992   88.9061 C   0  0  0  0  0  0  0  0  0  0  0  0
  122.0730  122.1264   87.8839 C   0  0  0  0  0  0  0  0  0  0  0  0
  120.6691  122.4480   88.3301 C   0  0  0  0  0  0  0  0  0  0  0  0
  122.4891  122.0831   86.5321 C   0  0  0  0  0  0  0  0  0  0  0  0
  121.5807  122.2411   85.4500 N   0  0  0  0  0  0  0  0  0  0  0  0
  121.1059  123.4504   84.9752 C   0  0  0  0  0  0  0  0  0  0  0  0
  119.7449  123.3285   84.3380 C   0  0  0  0  0  0  0  0  0  0  0  0
  121.6598  124.5387   85.0838 O   0  0  0  0  0  0  0  0  0  0  0  0
  127.2607  121.7654   84.2782 H   0  0  0  0  0  0  0  0  0  0  0  0
  125.9320  121.4500   83.1113 H   0  0  0  0  0  0  0  0  0  0  0  0
  126.7688  123.0394   83.1113 H   0  0  0  0  0  0  0  0  0  0  0  0
  125.8685  121.6012   87.0419 H   0  0  0  0  0  0  0  0  0  0  0  0
  122.6876  121.8787   89.9555 H   0  0  0  0  0  0  0  0  0  0  0  0
  120.6268  122.4577   89.4292 H   0  0  0  0  0  0  0  0  0  0  0  0
  120.3787  123.4359   87.9432 H   0  0  0  0  0  0  0  0  0  0  0  0
  119.9776  121.6850   87.9432 H   0  0  0  0  0  0  0  0  0  0  0  0
  121.2493  121.3857   84.9816 H   0  0  0  0  0  0  0  0  0  0  0  0
  118.9774  123.2597   85.1230 H   0  0  0  0  0  0  0  0  0  0  0  0
  119.5520  124.2129   83.7131 H   0  0  0  0  0  0  0  0  0  0  0  0
  119.7123  122.4238   83.7131 H   0  0  0  0  0  0  0  0  0  0  0  0
  1  2  1  0
  2  3  1  0
  3  4  2  0
  3  5  1  0
  5  6  2  0
  6  7  1  0
  7  8  1  0
  8  9  2  0
  8 10  1  0
  7 11  2  0
 11 12  1  0
 12 13  1  0
 12 14  2  0
 14 15  1  0
 15 16  1  0
 16 17  1  0
 16 18  2  0
 14  5  1  0
  1 19  1  0
  1 20  1  0
  1 21  1  0
  6 22  1  0
 11 23  1  0
 13 24  1  0
 13 25  1  0
 13 26  1  0
 15 27  1  0
 17 28  1  0
 17 29  1  0
 17 30  1  0
M  CHG  2   8   1  10  -1
M  END
>  <loss>  (10) 
0.2929670810699463

>  <score>  (10) 
7.162538528442383

$$$$
CTRBXYMUCRFWGM-UHFFFAOYSA-N
     RDKit          3D

 30 30  0  0  0  0  0  0  0  0999 V2000
  126.3855  122.1108   83.7007 C   0  0  0  0  0  0  0  0  0  0  0  0
  125.4458  122.6274   84.6458 O   0  0  0  0  0  0  0  0  0  0  0  0
  124.3432  121.8580   84.8146 C   0  0  0  0  0  0  0  0  0  0  0  0
  123.7785  121.2232   83.9348 O   0  0  0  0  0  0  0  0  0  0  0  0
  123.8759  121.8862   86.2364 C   0  0  0  0  0  0  0  0  0  0  0  0
  124.8074  121.6976   87.2730 C   0  0  0  0  0  0  0  0  0  0  0  0
  124.3827  121.7296   88.6025 C   0  0  0  0  0  0  0  0  0  0  0  0
  125.3583  121.5434   89.6854 N   0  0  0  0  0  4  0  0  0  0  0  0
  124.9606  121.0101   90.7306 O   0  0  0  0  0  0  0  0  0  0  0  0
  126.5176  121.9340   89.4917 O   0  0  0  0  0  1  0  0  0  0  0  0
  123.0318  121.9118   88.9089 C   0  0  0  0  0  0  0  0  0  0  0  0
  122.0771  122.0742   87.8848 C   0  0  0  0  0  0  0  0  0  0  0  0
  120.6352  122.1433   88.3203 C   0  0  0  0  0  0  0  0  0  0  0  0
  122.5052  122.1209   86.5368 C   0  0  0  0  0  0  0  0  0  0  0  0
  121.6054  122.3442   85.4591 N   0  0  0  0  0  0  0  0  0  0  0  0
  121.1547  123.5822   85.0376 C   0  0  0  0  0  0  0  0  0  0  0  0
  119.8151  123.5076   84.3499 C   0  0  0  0  0  0  0  0  0  0  0  0
  121.7595  124.6442   85.1340 O   0  0  0  0  0  0  0  0  0  0  0  0
  127.2274  121.6480   84.2363 H   0  0  0  0  0  0  0  0  0  0  0  0
  125.8934  121.3564   83.0692 H   0  0  0  0  0  0  0  0  0  0  0  0
  126.7588  122.9305   83.0692 H   0  0  0  0  0  0  0  0  0  0  0  0
  125.8679  121.5253   87.0369 H   0  0  0  0  0  0  0  0  0  0  0  0
  122.7099  121.9287   89.9606 H   0  0  0  0  0  0  0  0  0  0  0  0
  120.5838  122.1458   89.4191 H   0  0  0  0  0  0  0  0  0  0  0  0
  120.1779  123.0644   87.9298 H   0  0  0  0  0  0  0  0  0  0  0  0
  120.0919  121.2702   87.9298 H   0  0  0  0  0  0  0  0  0  0  0  0
  121.2613  121.5171   84.9508 H   0  0  0  0  0  0  0  0  0  0  0  0
  119.0170  123.4632   85.1055 H   0  0  0  0  0  0  0  0  0  0  0  0
  119.6755  124.3994   83.7212 H   0  0  0  0  0  0  0  0  0  0  0  0
  119.7754  122.6059   83.7212 H   0  0  0  0  0  0  0  0  0  0  0  0
  1  2  1  0
  2  3  1  0
  3  4  2  0
  3  5  1  0
  5  6  2  0
  6  7  1  0
  7  8  1  0
  8  9  2  0
  8 10  1  0
  7 11  2  0
 11 12  1  0
 12 13  1  0
 12 14  2  0
 14 15  1  0
 15 16  1  0
 16 17  1  0
 16 18  2  0
 14  5  1  0
  1 19  1  0
  1 20  1  0
  1 21  1  0
  6 22  1  0
 11 23  1  0
 13 24  1  0
 13 25  1  0
 13 26  1  0
 15 27  1  0
 17 28  1  0
 17 29  1  0
 17 30  1  0
M  CHG  2   8   1  10  -1
M  END
>  <loss>  (11) 
0.29381680488586426

>  <score>  (11) 
7.164083480834961

$$$$
CTRBXYMUCRFWGM-UHFFFAOYSA-N
     RDKit          3D

 30 30  0  0  0  0  0  0  0  0999 V2000
  126.3710  122.2109   83.6670 C   0  0  0  0  0  0  0  0  0  0  0  0
  125.5129  122.6542   84.7207 O   0  0  0  0  0  0  0  0  0  0  0  0
  124.3584  121.9536   84.8328 C   0  0  0  0  0  0  0  0  0  0  0  0
  123.7725  121.3983   83.9140 O   0  0  0  0  0  0  0  0  0  0  0  0
  123.8778  121.9253   86.2502 C   0  0  0  0  0  0  0  0  0  0  0  0
  124.8047  121.7299   87.2896 C   0  0  0  0  0  0  0  0  0  0  0  0
  124.3653  121.6946   88.6143 C   0  0  0  0  0  0  0  0  0  0  0  0
  125.3328  121.4792   89.6990 N   0  0  0  0  0  4  0  0  0  0  0  0
  126.4966  121.8618   89.5142 O   0  0  0  0  0  0  0  0  0  0  0  0
  124.9277  120.9329   90.7342 O   0  0  0  0  0  1  0  0  0  0  0  0
  123.0151  121.8883   88.9166 C   0  0  0  0  0  0  0  0  0  0  0  0
  122.0735  122.1143   87.8924 C   0  0  0  0  0  0  0  0  0  0  0  0
  120.6672  122.4298   88.3355 C   0  0  0  0  0  0  0  0  0  0  0  0
  122.4933  122.0756   86.5416 C   0  0  0  0  0  0  0  0  0  0  0  0
  121.5874  122.2328   85.4575 N   0  0  0  0  0  0  0  0  0  0  0  0
  121.1149  123.4418   84.9794 C   0  0  0  0  0  0  0  0  0  0  0  0
  119.7397  123.3272   84.3723 C   0  0  0  0  0  0  0  0  0  0  0  0
  121.6821  124.5253   85.0645 O   0  0  0  0  0  0  0  0  0  0  0  0
  127.2704  121.7463   84.0975 H   0  0  0  0  0  0  0  0  0  0  0  0
  125.8393  121.4747   83.0464 H   0  0  0  0  0  0  0  0  0  0  0  0
  126.6637  123.0706   83.0464 H   0  0  0  0  0  0  0  0  0  0  0  0
  125.8731  121.6051   87.0595 H   0  0  0  0  0  0  0  0  0  0  0  0
  122.6834  121.8642   89.9651 H   0  0  0  0  0  0  0  0  0  0  0  0
  120.6225  122.4398   89.4345 H   0  0  0  0  0  0  0  0  0  0  0  0
  120.3731  123.4162   87.9476 H   0  0  0  0  0  0  0  0  0  0  0  0
  119.9799  121.6635   87.9476 H   0  0  0  0  0  0  0  0  0  0  0  0
  121.2558  121.3770   84.9900 H   0  0  0  0  0  0  0  0  0  0  0  0
  118.9891  123.2647   85.1740 H   0  0  0  0  0  0  0  0  0  0  0  0
  119.5387  124.2117   83.7500 H   0  0  0  0  0  0  0  0  0  0  0  0
  119.6879  122.4216   83.7500 H   0  0  0  0  0  0  0  0  0  0  0  0
  1  2  1  0
  2  3  1  0
  3  4  2  0
  3  5  1  0
  5  6  2  0
  6  7  1  0
  7  8  1  0
  8  9  2  0
  8 10  1  0
  7 11  2  0
 11 12  1  0
 12 13  1  0
 12 14  2  0
 14 15  1  0
 15 16  1  0
 16 17  1  0
 16 18  2  0
 14  5  1  0
  1 19  1  0
  1 20  1  0
  1 21  1  0
  6 22  1  0
 11 23  1  0
 13 24  1  0
 13 25  1  0
 13 26  1  0
 15 27  1  0
 17 28  1  0
 17 29  1  0
 17 30  1  0
M  CHG  2   8   1  10  -1
M  END
>  <loss>  (12) 
0.29317590594291687

>  <score>  (12) 
7.15964937210083

$$$$
CTRBXYMUCRFWGM-UHFFFAOYSA-N
     RDKit          3D

 30 30  0  0  0  0  0  0  0  0999 V2000
  126.3705  122.2115   83.6684 C   0  0  0  0  0  0  0  0  0  0  0  0
  125.5145  122.6529   84.7246 O   0  0  0  0  0  0  0  0  0  0  0  0
  124.3587  121.9544   84.8356 C   0  0  0  0  0  0  0  0  0  0  0  0
  123.7720  121.4012   83.9160 O   0  0  0  0  0  0  0  0  0  0  0  0
  123.8776  121.9255   86.2527 C   0  0  0  0  0  0  0  0  0  0  0  0
  124.8040  121.7291   87.2924 C   0  0  0  0  0  0  0  0  0  0  0  0
  124.3641  121.6933   88.6169 C   0  0  0  0  0  0  0  0  0  0  0  0
  125.3311  121.4770   89.7019 N   0  0  0  0  0  4  0  0  0  0  0  0
  126.4948  121.8604   89.5182 O   0  0  0  0  0  0  0  0  0  0  0  0
  124.9258  120.9290   90.7360 O   0  0  0  0  0  1  0  0  0  0  0  0
  123.0139  121.8874   88.9188 C   0  0  0  0  0  0  0  0  0  0  0  0
  122.0727  122.1143   87.8944 C   0  0  0  0  0  0  0  0  0  0  0  0
  120.6663  122.4301   88.3372 C   0  0  0  0  0  0  0  0  0  0  0  0
  122.4930  122.0762   86.5438 C   0  0  0  0  0  0  0  0  0  0  0  0
  121.5875  122.2343   85.4594 N   0  0  0  0  0  0  0  0  0  0  0  0
  121.1168  123.4438   84.9809 C   0  0  0  0  0  0  0  0  0  0  0  0
  119.7433  123.3301   84.3698 C   0  0  0  0  0  0  0  0  0  0  0  0
  121.6840  124.5271   85.0685 O   0  0  0  0  0  0  0  0  0  0  0  0
  127.2712  121.7470   84.0962 H   0  0  0  0  0  0  0  0  0  0  0  0
  125.8378  121.4756   83.0480 H   0  0  0  0  0  0  0  0  0  0  0  0
  126.6611  123.0721   83.0480 H   0  0  0  0  0  0  0  0  0  0  0  0
  125.8724  121.6041   87.0626 H   0  0  0  0  0  0  0  0  0  0  0  0
  122.6818  121.8628   89.9672 H   0  0  0  0  0  0  0  0  0  0  0  0
  120.6215  122.4402   89.4362 H   0  0  0  0  0  0  0  0  0  0  0  0
  120.3725  123.4165   87.9491 H   0  0  0  0  0  0  0  0  0  0  0  0
  119.9791  121.6639   87.9491 H   0  0  0  0  0  0  0  0  0  0  0  0
  121.2549  121.3788   84.9920 H   0  0  0  0  0  0  0  0  0  0  0  0
  118.9903  123.2678   85.1692 H   0  0  0  0  0  0  0  0  0  0  0  0
  119.5446  124.2149   83.7471 H   0  0  0  0  0  0  0  0  0  0  0  0
  119.6928  122.4247   83.7471 H   0  0  0  0  0  0  0  0  0  0  0  0
  1  2  1  0
  2  3  1  0
  3  4  2  0
  3  5  1  0
  5  6  2  0
  6  7  1  0
  7  8  1  0
  8  9  2  0
  8 10  1  0
  7 11  2  0
 11 12  1  0
 12 13  1  0
 12 14  2  0
 14 15  1  0
 15 16  1  0
 16 17  1  0
 16 18  2  0
 14  5  1  0
  1 19  1  0
  1 20  1  0
  1 21  1  0
  6 22  1  0
 11 23  1  0
 13 24  1  0
 13 25  1  0
 13 26  1  0
 15 27  1  0
 17 28  1  0
 17 29  1  0
 17 30  1  0
M  CHG  2   8   1  10  -1
M  END
>  <loss>  (13) 
0.2931819260120392

>  <score>  (13) 
7.159415245056152

$$$$
CTRBXYMUCRFWGM-UHFFFAOYSA-N
     RDKit          3D

 30 30  0  0  0  0  0  0  0  0999 V2000
  126.3896  122.1099   83.7001 C   0  0  0  0  0  0  0  0  0  0  0  0
  125.4555  122.6231   84.6525 O   0  0  0  0  0  0  0  0  0  0  0  0
  124.3507  121.8566   84.8201 C   0  0  0  0  0  0  0  0  0  0  0  0
  123.7859  121.2225   83.9398 O   0  0  0  0  0  0  0  0  0  0  0  0
  123.8810  121.8871   86.2410 C   0  0  0  0  0  0  0  0  0  0  0  0
  124.8106  121.6989   87.2794 C   0  0  0  0  0  0  0  0  0  0  0  0
  124.3836  121.7330   88.6082 C   0  0  0  0  0  0  0  0  0  0  0  0
  125.3572  121.5474   89.6930 N   0  0  0  0  0  4  0  0  0  0  0  0
  124.9702  120.9846   90.7262 O   0  0  0  0  0  0  0  0  0  0  0  0
  126.5098  121.9617   89.5067 O   0  0  0  0  0  1  0  0  0  0  0  0
  123.0324  121.9170   88.9121 C   0  0  0  0  0  0  0  0  0  0  0  0
  122.0796  122.0790   87.8861 C   0  0  0  0  0  0  0  0  0  0  0  0
  120.6370  122.1502   88.3191 C   0  0  0  0  0  0  0  0  0  0  0  0
  122.5100  122.1236   86.5389 C   0  0  0  0  0  0  0  0  0  0  0  0
  121.6123  122.3464   85.4593 N   0  0  0  0  0  0  0  0  0  0  0  0
  121.1519  123.5832   85.0449 C   0  0  0  0  0  0  0  0  0  0  0  0
  119.8160  123.5012   84.3508 C   0  0  0  0  0  0  0  0  0  0  0  0
  121.7464  124.6500   85.1517 O   0  0  0  0  0  0  0  0  0  0  0  0
  127.2349  121.6455   84.2290 H   0  0  0  0  0  0  0  0  0  0  0  0
  125.8939  121.3574   83.0691 H   0  0  0  0  0  0  0  0  0  0  0  0
  126.7589  122.9318   83.0691 H   0  0  0  0  0  0  0  0  0  0  0  0
  125.8713  121.5253   87.0453 H   0  0  0  0  0  0  0  0  0  0  0  0
  122.7087  121.9356   89.9632 H   0  0  0  0  0  0  0  0  0  0  0  0
  120.5837  122.1528   89.4178 H   0  0  0  0  0  0  0  0  0  0  0  0
  120.1817  123.0719   87.9277 H   0  0  0  0  0  0  0  0  0  0  0  0
  120.0933  121.2778   87.9277 H   0  0  0  0  0  0  0  0  0  0  0  0
  121.2776  121.5198   84.9439 H   0  0  0  0  0  0  0  0  0  0  0  0
  119.0146  123.4521   85.1027 H   0  0  0  0  0  0  0  0  0  0  0  0
  119.6744  124.3924   83.7217 H   0  0  0  0  0  0  0  0  0  0  0  0
  119.7844  122.5994   83.7217 H   0  0  0  0  0  0  0  0  0  0  0  0
  1  2  1  0
  2  3  1  0
  3  4  2  0
  3  5  1  0
  5  6  2  0
  6  7  1  0
  7  8  1  0
  8  9  2  0
  8 10  1  0
  7 11  2  0
 11 12  1  0
 12 13  1  0
 12 14  2  0
 14 15  1  0
 15 16  1  0
 16 17  1  0
 16 18  2  0
 14  5  1  0
  1 19  1  0
  1 20  1  0
  1 21  1  0
  6 22  1  0
 11 23  1  0
 13 24  1  0
 13 25  1  0
 13 26  1  0
 15 27  1  0
 17 28  1  0
 17 29  1  0
 17 30  1  0
M  CHG  2   8   1  10  -1
M  END
>  <loss>  (14) 
0.29379546642303467

>  <score>  (14) 
7.156638145446777

$$$$
CTRBXYMUCRFWGM-UHFFFAOYSA-N
     RDKit          3D

 30 30  0  0  0  0  0  0  0  0999 V2000
  126.3886  122.1115   83.7005 C   0  0  0  0  0  0  0  0  0  0  0  0
  125.4529  122.6242   84.6516 O   0  0  0  0  0  0  0  0  0  0  0  0
  124.3499  121.8553   84.8203 C   0  0  0  0  0  0  0  0  0  0  0  0
  123.7862  121.2192   83.9407 O   0  0  0  0  0  0  0  0  0  0  0  0
  123.8808  121.8859   86.2414 C   0  0  0  0  0  0  0  0  0  0  0  0
  124.8108  121.6978   87.2794 C   0  0  0  0  0  0  0  0  0  0  0  0
  124.3843  121.7320   88.6084 C   0  0  0  0  0  0  0  0  0  0  0  0
  125.3583  121.5464   89.6928 N   0  0  0  0  0  4  0  0  0  0  0  0
  124.9718  120.9836   90.7261 O   0  0  0  0  0  0  0  0  0  0  0  0
  126.5108  121.9610   89.5061 O   0  0  0  0  0  1  0  0  0  0  0  0
  123.0332  121.9160   88.9127 C   0  0  0  0  0  0  0  0  0  0  0  0
  122.0800  122.0779   87.8871 C   0  0  0  0  0  0  0  0  0  0  0  0
  120.6376  122.1491   88.3207 C   0  0  0  0  0  0  0  0  0  0  0  0
  122.5099  122.1224   86.5397 C   0  0  0  0  0  0  0  0  0  0  0  0
  121.6118  122.3451   85.4605 N   0  0  0  0  0  0  0  0  0  0  0  0
  121.1526  123.5820   85.0450 C   0  0  0  0  0  0  0  0  0  0  0  0
  119.8162  123.5009   84.3518 C   0  0  0  0  0  0  0  0  0  0  0  0
  121.7484  124.6482   85.1504 O   0  0  0  0  0  0  0  0  0  0  0  0
  127.2338  121.6483   84.2308 H   0  0  0  0  0  0  0  0  0  0  0  0
  125.8945  121.3581   83.0695 H   0  0  0  0  0  0  0  0  0  0  0  0
  126.7577  122.9334   83.0695 H   0  0  0  0  0  0  0  0  0  0  0  0
  125.8713  121.5242   87.0449 H   0  0  0  0  0  0  0  0  0  0  0  0
  122.7099  121.9347   89.9640 H   0  0  0  0  0  0  0  0  0  0  0  0
  120.5847  122.1517   89.4194 H   0  0  0  0  0  0  0  0  0  0  0  0
  120.1822  123.0708   87.9295 H   0  0  0  0  0  0  0  0  0  0  0  0
  120.0937  121.2766   87.9295 H   0  0  0  0  0  0  0  0  0  0  0  0
  121.2758  121.5184   84.9461 H   0  0  0  0  0  0  0  0  0  0  0  0
  119.0152  123.4522   85.1041 H   0  0  0  0  0  0  0  0  0  0  0  0
  119.6748  124.3921   83.7227 H   0  0  0  0  0  0  0  0  0  0  0  0
  119.7836  122.5991   83.7227 H   0  0  0  0  0  0  0  0  0  0  0  0
  1  2  1  0
  2  3  1  0
  3  4  2  0
  3  5  1  0
  5  6  2  0
  6  7  1  0
  7  8  1  0
  8  9  2  0
  8 10  1  0
  7 11  2  0
 11 12  1  0
 12 13  1  0
 12 14  2  0
 14 15  1  0
 15 16  1  0
 16 17  1  0
 16 18  2  0
 14  5  1  0
  1 19  1  0
  1 20  1  0
  1 21  1  0
  6 22  1  0
 11 23  1  0
 13 24  1  0
 13 25  1  0
 13 26  1  0
 15 27  1  0
 17 28  1  0
 17 29  1  0
 17 30  1  0
M  CHG  2   8   1  10  -1
M  END
>  <loss>  (15) 
0.2937963306903839

>  <score>  (15) 
7.156540870666504

$$$$
CTRBXYMUCRFWGM-UHFFFAOYSA-N
     RDKit          3D

 30 30  0  0  0  0  0  0  0  0999 V2000
  126.3963  122.1024   83.7283 C   0  0  0  0  0  0  0  0  0  0  0  0
  125.4368  122.6374   84.6427 O   0  0  0  0  0  0  0  0  0  0  0  0
  124.3368  121.8646   84.8136 C   0  0  0  0  0  0  0  0  0  0  0  0
  123.7724  121.2283   83.9347 O   0  0  0  0  0  0  0  0  0  0  0  0
  123.8722  121.8913   86.2363 C   0  0  0  0  0  0  0  0  0  0  0  0
  124.8059  121.7033   87.2710 C   0  0  0  0  0  0  0  0  0  0  0  0
  124.3836  121.7338   88.6013 C   0  0  0  0  0  0  0  0  0  0  0  0
  125.3616  121.5483   89.6822 N   0  0  0  0  0  4  0  0  0  0  0  0
  126.5220  121.9327   89.4833 O   0  0  0  0  0  0  0  0  0  0  0  0
  124.9646  121.0217   90.7310 O   0  0  0  0  0  1  0  0  0  0  0  0
  123.0331  121.9139   88.9104 C   0  0  0  0  0  0  0  0  0  0  0  0
  122.0762  122.0756   87.8881 C   0  0  0  0  0  0  0  0  0  0  0  0
  120.6350  122.1425   88.3265 C   0  0  0  0  0  0  0  0  0  0  0  0
  122.5017  122.1238   86.5394 C   0  0  0  0  0  0  0  0  0  0  0  0
  121.5996  122.3466   85.4635 N   0  0  0  0  0  0  0  0  0  0  0  0
  121.1559  123.5850   85.0358 C   0  0  0  0  0  0  0  0  0  0  0  0
  119.8311  123.5102   84.3201 C   0  0  0  0  0  0  0  0  0  0  0  0
  121.7569  124.6476   85.1476 O   0  0  0  0  0  0  0  0  0  0  0  0
  127.2219  121.6421   84.2908 H   0  0  0  0  0  0  0  0  0  0  0  0
  125.9153  121.3423   83.0951 H   0  0  0  0  0  0  0  0  0  0  0  0
  126.7901  122.9112   83.0951 H   0  0  0  0  0  0  0  0  0  0  0  0
  125.8662  121.5327   87.0327 H   0  0  0  0  0  0  0  0  0  0  0  0
  122.7131  121.9297   89.9627 H   0  0  0  0  0  0  0  0  0  0  0  0
  120.5858  122.1448   89.4254 H   0  0  0  0  0  0  0  0  0  0  0  0
  120.1756  123.0629   87.9369 H   0  0  0  0  0  0  0  0  0  0  0  0
  120.0924  121.2685   87.9369 H   0  0  0  0  0  0  0  0  0  0  0  0
  121.2479  121.5187   84.9617 H   0  0  0  0  0  0  0  0  0  0  0  0
  119.0173  123.4642   85.0588 H   0  0  0  0  0  0  0  0  0  0  0  0
  119.7040  124.4026   83.6896 H   0  0  0  0  0  0  0  0  0  0  0  0
  119.8053  122.6091   83.6896 H   0  0  0  0  0  0  0  0  0  0  0  0
  1  2  1  0
  2  3  1  0
  3  4  2  0
  3  5  1  0
  5  6  2  0
  6  7  1  0
  7  8  1  0
  8  9  2  0
  8 10  1  0
  7 11  2  0
 11 12  1  0
 12 13  1  0
 12 14  2  0
 14 15  1  0
 15 16  1  0
 16 17  1  0
 16 18  2  0
 14  5  1  0
  1 19  1  0
  1 20  1  0
  1 21  1  0
  6 22  1  0
 11 23  1  0
 13 24  1  0
 13 25  1  0
 13 26  1  0
 15 27  1  0
 17 28  1  0
 17 29  1  0
 17 30  1  0
M  CHG  2   8   1  10  -1
M  END
>  <loss>  (16) 
0.2938712537288666

>  <score>  (16) 
7.152320861816406

$$$$
CTRBXYMUCRFWGM-UHFFFAOYSA-N
     RDKit          3D

 30 30  0  0  0  0  0  0  0  0999 V2000
  126.4125  122.1313   83.7249 C   0  0  0  0  0  0  0  0  0  0  0  0
  125.5114  122.5803   84.7427 O   0  0  0  0  0  0  0  0  0  0  0  0
  124.3860  121.8265   84.8471 C   0  0  0  0  0  0  0  0  0  0  0  0
  123.8554  121.2243   83.9272 O   0  0  0  0  0  0  0  0  0  0  0  0
  123.8244  121.8616   86.2311 C   0  0  0  0  0  0  0  0  0  0  0  0
  124.7711  121.6856   87.2575 C   0  0  0  0  0  0  0  0  0  0  0  0
  124.3693  121.7263   88.5924 C   0  0  0  0  0  0  0  0  0  0  0  0
  125.3598  121.5453   89.6620 N   0  0  0  0  0  4  0  0  0  0  0  0
  126.5095  121.9594   89.4588 O   0  0  0  0  0  0  0  0  0  0  0  0
  124.9843  120.9957   90.7064 O   0  0  0  0  0  1  0  0  0  0  0  0
  123.0237  121.9136   88.9159 C   0  0  0  0  0  0  0  0  0  0  0  0
  122.0556  122.0753   87.9036 C   0  0  0  0  0  0  0  0  0  0  0  0
  120.6208  122.1581   88.3617 C   0  0  0  0  0  0  0  0  0  0  0  0
  122.4622  122.1111   86.5474 C   0  0  0  0  0  0  0  0  0  0  0  0
  121.5422  122.3459   85.4927 N   0  0  0  0  0  0  0  0  0  0  0  0
  121.1510  123.5917   85.0350 C   0  0  0  0  0  0  0  0  0  0  0  0
  119.8114  123.5611   84.3441 C   0  0  0  0  0  0  0  0  0  0  0  0
  121.8051  124.6257   85.1042 O   0  0  0  0  0  0  0  0  0  0  0  0
  127.3033  121.6875   84.1935 H   0  0  0  0  0  0  0  0  0  0  0  0
  125.9129  121.3768   83.0996 H   0  0  0  0  0  0  0  0  0  0  0  0
  126.7139  122.9846   83.0996 H   0  0  0  0  0  0  0  0  0  0  0  0
  125.8286  121.5158   87.0067 H   0  0  0  0  0  0  0  0  0  0  0  0
  122.7158  121.9352   89.9717 H   0  0  0  0  0  0  0  0  0  0  0  0
  120.5865  122.1601   89.4611 H   0  0  0  0  0  0  0  0  0  0  0  0
  120.1667  123.0840   87.9790 H   0  0  0  0  0  0  0  0  0  0  0  0
  120.0631  121.2907   87.9790 H   0  0  0  0  0  0  0  0  0  0  0  0
  121.1323  121.5218   85.0303 H   0  0  0  0  0  0  0  0  0  0  0  0
  119.0104  123.5428   85.0978 H   0  0  0  0  0  0  0  0  0  0  0  0
  119.7027  124.4570   83.7152 H   0  0  0  0  0  0  0  0  0  0  0  0
  119.7438  122.6612   83.7152 H   0  0  0  0  0  0  0  0  0  0  0  0
  1  2  1  0
  2  3  1  0
  3  4  2  0
  3  5  1  0
  5  6  2  0
  6  7  1  0
  7  8  1  0
  8  9  2  0
  8 10  1  0
  7 11  2  0
 11 12  1  0
 12 13  1  0
 12 14  2  0
 14 15  1  0
 15 16  1  0
 16 17  1  0
 16 18  2  0
 14  5  1  0
  1 19  1  0
  1 20  1  0
  1 21  1  0
  6 22  1  0
 11 23  1  0
 13 24  1  0
 13 25  1  0
 13 26  1  0
 15 27  1  0
 17 28  1  0
 17 29  1  0
 17 30  1  0
M  CHG  2   8   1  10  -1
M  END
>  <loss>  (17) 
0.2911515235900879

>  <score>  (17) 
7.13618278503418

$$$$
CTRBXYMUCRFWGM-UHFFFAOYSA-N
     RDKit          3D

 30 30  0  0  0  0  0  0  0  0999 V2000
  126.3929  122.0990   83.7230 C   0  0  0  0  0  0  0  0  0  0  0  0
  125.4360  122.6337   84.6403 O   0  0  0  0  0  0  0  0  0  0  0  0
  124.3344  121.8632   84.8104 C   0  0  0  0  0  0  0  0  0  0  0  0
  123.7681  121.2295   83.9308 O   0  0  0  0  0  0  0  0  0  0  0  0
  123.8704  121.8887   86.2333 C   0  0  0  0  0  0  0  0  0  0  0  0
  124.8046  121.6998   87.2674 C   0  0  0  0  0  0  0  0  0  0  0  0
  124.3830  121.7292   88.5980 C   0  0  0  0  0  0  0  0  0  0  0  0
  125.3614  121.5428   89.6783 N   0  0  0  0  0  4  0  0  0  0  0  0
  126.5196  121.9359   89.4827 O   0  0  0  0  0  0  0  0  0  0  0  0
  124.9672  121.0067   90.7234 O   0  0  0  0  0  1  0  0  0  0  0  0
  123.0326  121.9091   88.9079 C   0  0  0  0  0  0  0  0  0  0  0  0
  122.0753  122.0717   87.8862 C   0  0  0  0  0  0  0  0  0  0  0  0
  120.6343  122.1383   88.3253 C   0  0  0  0  0  0  0  0  0  0  0  0
  122.5001  122.1210   86.5374 C   0  0  0  0  0  0  0  0  0  0  0  0
  121.5975  122.3447   85.4621 N   0  0  0  0  0  0  0  0  0  0  0  0
  121.1580  123.5838   85.0319 C   0  0  0  0  0  0  0  0  0  0  0  0
  119.8201  123.5160   84.3404 C   0  0  0  0  0  0  0  0  0  0  0  0
  121.7711  124.6414   85.1242 O   0  0  0  0  0  0  0  0  0  0  0  0
  127.2194  121.6372   84.2830 H   0  0  0  0  0  0  0  0  0  0  0  0
  125.9097  121.3402   83.0900 H   0  0  0  0  0  0  0  0  0  0  0  0
  126.7860  122.9082   83.0900 H   0  0  0  0  0  0  0  0  0  0  0  0
  125.8647  121.5293   87.0285 H   0  0  0  0  0  0  0  0  0  0  0  0
  122.7131  121.9241   89.9603 H   0  0  0  0  0  0  0  0  0  0  0  0
  120.5856  122.1405   89.4242 H   0  0  0  0  0  0  0  0  0  0  0  0
  120.1745  123.0586   87.9360 H   0  0  0  0  0  0  0  0  0  0  0  0
  120.0916  121.2642   87.9360 H   0  0  0  0  0  0  0  0  0  0  0  0
  121.2419  121.5170   84.9628 H   0  0  0  0  0  0  0  0  0  0  0  0
  119.0196  123.4754   85.0938 H   0  0  0  0  0  0  0  0  0  0  0  0
  119.6867  124.4085   83.7115 H   0  0  0  0  0  0  0  0  0  0  0  0
  119.7777  122.6145   83.7115 H   0  0  0  0  0  0  0  0  0  0  0  0
  1  2  1  0
  2  3  1  0
  3  4  2  0
  3  5  1  0
  5  6  2  0
  6  7  1  0
  7  8  1  0
  8  9  2  0
  8 10  1  0
  7 11  2  0
 11 12  1  0
 12 13  1  0
 12 14  2  0
 14 15  1  0
 15 16  1  0
 16 17  1  0
 16 18  2  0
 14  5  1  0
  1 19  1  0
  1 20  1  0
  1 21  1  0
  6 22  1  0
 11 23  1  0
 13 24  1  0
 13 25  1  0
 13 26  1  0
 15 27  1  0
 17 28  1  0
 17 29  1  0
 17 30  1  0
M  CHG  2   8   1  10  -1
M  END
>  <loss>  (18) 
0.293874055147171

>  <score>  (18) 
7.147711753845215

$$$$
CTRBXYMUCRFWGM-UHFFFAOYSA-N
     RDKit          3D

 30 30  0  0  0  0  0  0  0  0999 V2000
  126.3884  122.1127   83.6962 C   0  0  0  0  0  0  0  0  0  0  0  0
  125.4596  122.6221   84.6558 O   0  0  0  0  0  0  0  0  0  0  0  0
  124.3518  121.8593   84.8204 C   0  0  0  0  0  0  0  0  0  0  0  0
  123.7853  121.2299   83.9379 O   0  0  0  0  0  0  0  0  0  0  0  0
  123.8813  121.8875   86.2411 C   0  0  0  0  0  0  0  0  0  0  0  0
  124.8104  121.6990   87.2798 C   0  0  0  0  0  0  0  0  0  0  0  0
  124.3826  121.7310   88.6084 C   0  0  0  0  0  0  0  0  0  0  0  0
  125.3557  121.5449   89.6935 N   0  0  0  0  0  4  0  0  0  0  0  0
  126.5094  121.9557   89.5063 O   0  0  0  0  0  0  0  0  0  0  0  0
  124.9672  120.9854   90.7279 O   0  0  0  0  0  1  0  0  0  0  0  0
  123.0310  121.9131   88.9116 C   0  0  0  0  0  0  0  0  0  0  0  0
  122.0786  122.0755   87.8853 C   0  0  0  0  0  0  0  0  0  0  0  0
  120.6357  122.1445   88.3175 C   0  0  0  0  0  0  0  0  0  0  0  0
  122.5098  122.1222   86.5384 C   0  0  0  0  0  0  0  0  0  0  0  0
  121.6126  122.3455   85.4585 N   0  0  0  0  0  0  0  0  0  0  0  0
  121.1495  123.5821   85.0467 C   0  0  0  0  0  0  0  0  0  0  0  0
  119.8188  123.4976   84.3432 C   0  0  0  0  0  0  0  0  0  0  0  0
  121.7386  124.6510   85.1625 O   0  0  0  0  0  0  0  0  0  0  0  0
  127.2371  121.6471   84.2186 H   0  0  0  0  0  0  0  0  0  0  0  0
  125.8895  121.3619   83.0657 H   0  0  0  0  0  0  0  0  0  0  0  0
  126.7534  122.9369   83.0657 H   0  0  0  0  0  0  0  0  0  0  0  0
  125.8714  121.5267   87.0461 H   0  0  0  0  0  0  0  0  0  0  0  0
  122.7066  121.9301   89.9626 H   0  0  0  0  0  0  0  0  0  0  0  0
  120.5818  122.1471   89.4162 H   0  0  0  0  0  0  0  0  0  0  0  0
  120.1793  123.0656   87.9259 H   0  0  0  0  0  0  0  0  0  0  0  0
  120.0934  121.2713   87.9259 H   0  0  0  0  0  0  0  0  0  0  0  0
  121.2803  121.5193   84.9408 H   0  0  0  0  0  0  0  0  0  0  0  0
  119.0122  123.4463   85.0893 H   0  0  0  0  0  0  0  0  0  0  0  0
  119.6796  124.3887   83.7134 H   0  0  0  0  0  0  0  0  0  0  0  0
  119.7935  122.5960   83.7134 H   0  0  0  0  0  0  0  0  0  0  0  0
  1  2  1  0
  2  3  1  0
  3  4  2  0
  3  5  1  0
  5  6  2  0
  6  7  1  0
  7  8  1  0
  8  9  2  0
  8 10  1  0
  7 11  2  0
 11 12  1  0
 12 13  1  0
 12 14  2  0
 14 15  1  0
 15 16  1  0
 16 17  1  0
 16 18  2  0
 14  5  1  0
  1 19  1  0
  1 20  1  0
  1 21  1  0
  6 22  1  0
 11 23  1  0
 13 24  1  0
 13 25  1  0
 13 26  1  0
 15 27  1  0
 17 28  1  0
 17 29  1  0
 17 30  1  0
M  CHG  2   8   1  10  -1
M  END
>  <loss>  (19) 
0.29380083084106445

>  <score>  (19) 
7.1402587890625

$$$$
CTRBXYMUCRFWGM-UHFFFAOYSA-N
     RDKit          3D

 30 30  0  0  0  0  0  0  0  0999 V2000
  126.3916  122.1106   83.7063 C   0  0  0  0  0  0  0  0  0  0  0  0
  125.4517  122.6258   84.6518 O   0  0  0  0  0  0  0  0  0  0  0  0
  124.3502  121.8549   84.8210 C   0  0  0  0  0  0  0  0  0  0  0  0
  123.7876  121.2173   83.9419 O   0  0  0  0  0  0  0  0  0  0  0  0
  123.8811  121.8855   86.2422 C   0  0  0  0  0  0  0  0  0  0  0  0
  124.8111  121.6972   87.2802 C   0  0  0  0  0  0  0  0  0  0  0  0
  124.3847  121.7314   88.6091 C   0  0  0  0  0  0  0  0  0  0  0  0
  125.3588  121.5456   89.6935 N   0  0  0  0  0  4  0  0  0  0  0  0
  126.5101  121.9642   89.5086 O   0  0  0  0  0  0  0  0  0  0  0  0
  124.9734  120.9786   90.7251 O   0  0  0  0  0  1  0  0  0  0  0  0
  123.0337  121.9154   88.9136 C   0  0  0  0  0  0  0  0  0  0  0  0
  122.0804  122.0775   87.8880 C   0  0  0  0  0  0  0  0  0  0  0  0
  120.6380  122.1487   88.3217 C   0  0  0  0  0  0  0  0  0  0  0  0
  122.5102  122.1220   86.5406 C   0  0  0  0  0  0  0  0  0  0  0  0
  121.6121  122.3449   85.4614 N   0  0  0  0  0  0  0  0  0  0  0  0
  121.1529  123.5819   85.0461 C   0  0  0  0  0  0  0  0  0  0  0  0
  119.8136  123.5016   84.3585 C   0  0  0  0  0  0  0  0  0  0  0  0
  121.7506  124.6474   85.1476 O   0  0  0  0  0  0  0  0  0  0  0  0
  127.2344  121.6487   84.2414 H   0  0  0  0  0  0  0  0  0  0  0  0
  125.9003  121.3557   83.0748 H   0  0  0  0  0  0  0  0  0  0  0  0
  126.7636  122.9309   83.0748 H   0  0  0  0  0  0  0  0  0  0  0  0
  125.8717  121.5235   87.0456 H   0  0  0  0  0  0  0  0  0  0  0  0
  122.7104  121.9341   89.9648 H   0  0  0  0  0  0  0  0  0  0  0  0
  120.5852  122.1514   89.4204 H   0  0  0  0  0  0  0  0  0  0  0  0
  120.1826  123.0705   87.9305 H   0  0  0  0  0  0  0  0  0  0  0  0
  120.0940  121.2764   87.9305 H   0  0  0  0  0  0  0  0  0  0  0  0
  121.2761  121.5183   84.9470 H   0  0  0  0  0  0  0  0  0  0  0  0
  119.0157  123.4538   85.1142 H   0  0  0  0  0  0  0  0  0  0  0  0
  119.6702  124.3928   83.7298 H   0  0  0  0  0  0  0  0  0  0  0  0
  119.7776  122.5997   83.7298 H   0  0  0  0  0  0  0  0  0  0  0  0
  1  2  1  0
  2  3  1  0
  3  4  2  0
  3  5  1  0
  5  6  2  0
  6  7  1  0
  7  8  1  0
  8  9  2  0
  8 10  1  0
  7 11  2  0
 11 12  1  0
 12 13  1  0
 12 14  2  0
 14 15  1  0
 15 16  1  0
 16 17  1  0
 16 18  2  0
 14  5  1  0
  1 19  1  0
  1 20  1  0
  1 21  1  0
  6 22  1  0
 11 23  1  0
 13 24  1  0
 13 25  1  0
 13 26  1  0
 15 27  1  0
 17 28  1  0
 17 29  1  0
 17 30  1  0
M  CHG  2   8   1  10  -1
M  END
>  <loss>  (20) 
0.2938012182712555

>  <score>  (20) 
7.140259742736816

$$$$
CTRBXYMUCRFWGM-UHFFFAOYSA-N
     RDKit          3D

 30 30  0  0  0  0  0  0  0  0999 V2000
  126.0950  122.7632   83.4542 C   0  0  0  0  0  0  0  0  0  0  0  0
  125.0859  122.9354   84.4517 O   0  0  0  0  0  0  0  0  0  0  0  0
  124.4033  121.8052   84.7564 C   0  0  0  0  0  0  0  0  0  0  0  0
  124.2303  120.8555   84.0053 O   0  0  0  0  0  0  0  0  0  0  0  0
  123.8835  121.8483   86.1595 C   0  0  0  0  0  0  0  0  0  0  0  0
  124.7738  121.6595   87.2316 C   0  0  0  0  0  0  0  0  0  0  0  0
  124.2975  121.6906   88.5435 C   0  0  0  0  0  0  0  0  0  0  0  0
  125.2265  121.4822   89.6628 N   0  0  0  0  0  4  0  0  0  0  0  0
  124.7821  120.9549   90.6916 O   0  0  0  0  0  0  0  0  0  0  0  0
  126.3994  121.8513   89.5112 O   0  0  0  0  0  1  0  0  0  0  0  0
  122.9477  121.9441   88.7997 C   0  0  0  0  0  0  0  0  0  0  0  0
  122.0433  122.1645   87.7413 C   0  0  0  0  0  0  0  0  0  0  0  0
  120.6380  122.5470   88.1319 C   0  0  0  0  0  0  0  0  0  0  0  0
  122.4981  122.0593   86.4054 C   0  0  0  0  0  0  0  0  0  0  0  0
  121.6284  122.2073   85.2907 N   0  0  0  0  0  0  0  0  0  0  0  0
  121.1581  123.4114   84.7982 C   0  0  0  0  0  0  0  0  0  0  0  0
  119.7824  123.2921   84.1931 C   0  0  0  0  0  0  0  0  0  0  0  0
  121.7274  124.4948   84.8699 O   0  0  0  0  0  0  0  0  0  0  0  0
  127.0674  122.5972   83.9410 H   0  0  0  0  0  0  0  0  0  0  0  0
  125.8461  121.8945   82.8269 H   0  0  0  0  0  0  0  0  0  0  0  0
  126.1482  123.6652   82.8269 H   0  0  0  0  0  0  0  0  0  0  0  0
  125.8428  121.4878   87.0369 H   0  0  0  0  0  0  0  0  0  0  0  0
  122.5869  121.9720   89.8384 H   0  0  0  0  0  0  0  0  0  0  0  0
  120.5555  122.5694   89.2286 H   0  0  0  0  0  0  0  0  0  0  0  0
  120.4025  123.5419   87.7260 H   0  0  0  0  0  0  0  0  0  0  0  0
  119.9309  121.8086   87.7260 H   0  0  0  0  0  0  0  0  0  0  0  0
  121.3237  121.3484   84.8108 H   0  0  0  0  0  0  0  0  0  0  0  0
  119.0331  123.2271   84.9958 H   0  0  0  0  0  0  0  0  0  0  0  0
  119.5776  124.1759   83.5709 H   0  0  0  0  0  0  0  0  0  0  0  0
  119.7327  122.3863   83.5709 H   0  0  0  0  0  0  0  0  0  0  0  0
  1  2  1  0
  2  3  1  0
  3  4  2  0
  3  5  1  0
  5  6  2  0
  6  7  1  0
  7  8  1  0
  8  9  2  0
  8 10  1  0
  7 11  2  0
 11 12  1  0
 12 13  1  0
 12 14  2  0
 14 15  1  0
 15 16  1  0
 16 17  1  0
 16 18  2  0
 14  5  1  0
  1 19  1  0
  1 20  1  0
  1 21  1  0
  6 22  1  0
 11 23  1  0
 13 24  1  0
 13 25  1  0
 13 26  1  0
 15 27  1  0
 17 28  1  0
 17 29  1  0
 17 30  1  0
M  CHG  2   8   1  10  -1
M  END
>  <loss>  (21) 
0.3182801306247711

>  <score>  (21) 
6.762896537780762

$$$$
CTRBXYMUCRFWGM-UHFFFAOYSA-N
     RDKit          3D

 30 30  0  0  0  0  0  0  0  0999 V2000
  126.1066  122.6094   83.4346 C   0  0  0  0  0  0  0  0  0  0  0  0
  125.0811  122.8299   84.4056 O   0  0  0  0  0  0  0  0  0  0  0  0
  124.3928  121.7158   84.7537 C   0  0  0  0  0  0  0  0  0  0  0  0
  124.1919  120.7500   84.0306 O   0  0  0  0  0  0  0  0  0  0  0  0
  123.8816  121.8118   86.1574 C   0  0  0  0  0  0  0  0  0  0  0  0
  124.7729  121.6325   87.2303 C   0  0  0  0  0  0  0  0  0  0  0  0
  124.3073  121.7274   88.5430 C   0  0  0  0  0  0  0  0  0  0  0  0
  125.2412  121.5509   89.6636 N   0  0  0  0  0  4  0  0  0  0  0  0
  124.8357  120.9418   90.6629 O   0  0  0  0  0  0  0  0  0  0  0  0
  126.3815  122.0191   89.5394 O   0  0  0  0  0  1  0  0  0  0  0  0
  122.9541  121.9636   88.7978 C   0  0  0  0  0  0  0  0  0  0  0  0
  122.0383  122.1179   87.7375 C   0  0  0  0  0  0  0  0  0  0  0  0
  120.5863  122.2489   88.1223 C   0  0  0  0  0  0  0  0  0  0  0  0
  122.5104  122.1008   86.4036 C   0  0  0  0  0  0  0  0  0  0  0  0
  121.6534  122.3122   85.2893 N   0  0  0  0  0  0  0  0  0  0  0  0
  121.2198  123.5455   84.8371 C   0  0  0  0  0  0  0  0  0  0  0  0
  119.8449  123.4860   84.2211 C   0  0  0  0  0  0  0  0  0  0  0  0
  121.8610  124.5901   84.8565 O   0  0  0  0  0  0  0  0  0  0  0  0
  127.0584  122.4047   83.9466 H   0  0  0  0  0  0  0  0  0  0  0  0
  125.8364  121.7488   82.8050 H   0  0  0  0  0  0  0  0  0  0  0  0
  126.2141  123.5050   82.8050 H   0  0  0  0  0  0  0  0  0  0  0  0
  125.8341  121.4180   87.0358 H   0  0  0  0  0  0  0  0  0  0  0  0
  122.5995  122.0299   89.8370 H   0  0  0  0  0  0  0  0  0  0  0  0
  120.4969  122.2570   89.2187 H   0  0  0  0  0  0  0  0  0  0  0  0
  120.1821  123.1872   87.7146 H   0  0  0  0  0  0  0  0  0  0  0  0
  120.0207  121.3982   87.7146 H   0  0  0  0  0  0  0  0  0  0  0  0
  121.3289  121.4795   84.7772 H   0  0  0  0  0  0  0  0  0  0  0  0
  119.0873  123.4532   85.0179 H   0  0  0  0  0  0  0  0  0  0  0  0
  119.6834  124.3780   83.5980 H   0  0  0  0  0  0  0  0  0  0  0  0
  119.7610  122.5834   83.5980 H   0  0  0  0  0  0  0  0  0  0  0  0
  1  2  1  0
  2  3  1  0
  3  4  2  0
  3  5  1  0
  5  6  2  0
  6  7  1  0
  7  8  1  0
  8  9  2  0
  8 10  1  0
  7 11  2  0
 11 12  1  0
 12 13  1  0
 12 14  2  0
 14 15  1  0
 15 16  1  0
 16 17  1  0
 16 18  2  0
 14  5  1  0
  1 19  1  0
  1 20  1  0
  1 21  1  0
  6 22  1  0
 11 23  1  0
 13 24  1  0
 13 25  1  0
 13 26  1  0
 15 27  1  0
 17 28  1  0
 17 29  1  0
 17 30  1  0
M  CHG  2   8   1  10  -1
M  END
>  <loss>  (22) 
0.3178880214691162

>  <score>  (22) 
6.728036880493164

$$$$
CTRBXYMUCRFWGM-UHFFFAOYSA-N
     RDKit          3D

 30 30  0  0  0  0  0  0  0  0999 V2000
  126.1078  122.6095   83.4459 C   0  0  0  0  0  0  0  0  0  0  0  0
  125.1146  122.8175   84.4558 O   0  0  0  0  0  0  0  0  0  0  0  0
  124.4312  121.6918   84.7898 C   0  0  0  0  0  0  0  0  0  0  0  0
  124.2753  120.7226   84.0641 O   0  0  0  0  0  0  0  0  0  0  0  0
  123.8298  121.7952   86.1535 C   0  0  0  0  0  0  0  0  0  0  0  0
  124.7408  121.6364   87.2145 C   0  0  0  0  0  0  0  0  0  0  0  0
  124.3007  121.7396   88.5339 C   0  0  0  0  0  0  0  0  0  0  0  0
  125.2540  121.5764   89.6395 N   0  0  0  0  0  4  0  0  0  0  0  0
  124.8716  120.9605   90.6441 O   0  0  0  0  0  0  0  0  0  0  0  0
  126.3862  122.0583   89.4984 O   0  0  0  0  0  1  0  0  0  0  0  0
  122.9514  121.9727   88.8085 C   0  0  0  0  0  0  0  0  0  0  0  0
  122.0183  122.1183   87.7615 C   0  0  0  0  0  0  0  0  0  0  0  0
  120.5732  122.2545   88.1718 C   0  0  0  0  0  0  0  0  0  0  0  0
  122.4658  122.0907   86.4181 C   0  0  0  0  0  0  0  0  0  0  0  0
  121.5839  122.3064   85.3273 N   0  0  0  0  0  0  0  0  0  0  0  0
  121.2197  123.5435   84.8258 C   0  0  0  0  0  0  0  0  0  0  0  0
  119.8579  123.5289   84.1792 C   0  0  0  0  0  0  0  0  0  0  0  0
  121.9100  124.5561   84.8272 O   0  0  0  0  0  0  0  0  0  0  0  0
  127.0782  122.4063   83.9223 H   0  0  0  0  0  0  0  0  0  0  0  0
  125.8201  121.7521   82.8197 H   0  0  0  0  0  0  0  0  0  0  0  0
  126.1882  123.5103   82.8197 H   0  0  0  0  0  0  0  0  0  0  0  0
  125.8005  121.4309   87.0030 H   0  0  0  0  0  0  0  0  0  0  0  0
  122.6129  122.0434   89.8528 H   0  0  0  0  0  0  0  0  0  0  0  0
  120.5027  122.2612   89.2695 H   0  0  0  0  0  0  0  0  0  0  0  0
  120.1658  123.1951   87.7725 H   0  0  0  0  0  0  0  0  0  0  0  0
  119.9972  121.4067   87.7725 H   0  0  0  0  0  0  0  0  0  0  0  0
  121.1822  121.4744   84.8720 H   0  0  0  0  0  0  0  0  0  0  0  0
  119.0820  123.5205   84.9588 H   0  0  0  0  0  0  0  0  0  0  0  0
  119.7394  124.4258   83.5535 H   0  0  0  0  0  0  0  0  0  0  0  0
  119.7587  122.6296   83.5535 H   0  0  0  0  0  0  0  0  0  0  0  0
  1  2  1  0
  2  3  1  0
  3  4  2  0
  3  5  1  0
  5  6  2  0
  6  7  1  0
  7  8  1  0
  8  9  2  0
  8 10  1  0
  7 11  2  0
 11 12  1  0
 12 13  1  0
 12 14  2  0
 14 15  1  0
 15 16  1  0
 16 17  1  0
 16 18  2  0
 14  5  1  0
  1 19  1  0
  1 20  1  0
  1 21  1  0
  6 22  1  0
 11 23  1  0
 13 24  1  0
 13 25  1  0
 13 26  1  0
 15 27  1  0
 17 28  1  0
 17 29  1  0
 17 30  1  0
M  CHG  2   8   1  10  -1
M  END
>  <loss>  (23) 
0.314604252576828

>  <score>  (23) 
6.708351135253906

$$$$
CTRBXYMUCRFWGM-UHFFFAOYSA-N
     RDKit          3D

 30 30  0  0  0  0  0  0  0  0999 V2000
  126.1053  122.6282   83.4776 C   0  0  0  0  0  0  0  0  0  0  0  0
  125.0410  122.8470   84.4063 O   0  0  0  0  0  0  0  0  0  0  0  0
  124.3794  121.7225   84.7725 C   0  0  0  0  0  0  0  0  0  0  0  0
  124.1870  120.7475   84.0594 O   0  0  0  0  0  0  0  0  0  0  0  0
  123.8865  121.8193   86.1825 C   0  0  0  0  0  0  0  0  0  0  0  0
  124.7935  121.6503   87.2439 C   0  0  0  0  0  0  0  0  0  0  0  0
  124.3449  121.7461   88.5625 C   0  0  0  0  0  0  0  0  0  0  0  0
  125.2952  121.5804   89.6709 N   0  0  0  0  0  4  0  0  0  0  0  0
  125.5127  122.5639   90.3922 O   0  0  0  0  0  0  0  0  0  0  0  0
  125.8254  120.4704   89.8160 O   0  0  0  0  0  1  0  0  0  0  0  0
  122.9935  121.9730   88.8348 C   0  0  0  0  0  0  0  0  0  0  0  0
  122.0625  122.1169   87.7864 C   0  0  0  0  0  0  0  0  0  0  0  0
  120.6148  122.2383   88.1904 C   0  0  0  0  0  0  0  0  0  0  0  0
  122.5166  122.0989   86.4464 C   0  0  0  0  0  0  0  0  0  0  0  0
  121.6430  122.3001   85.3431 N   0  0  0  0  0  0  0  0  0  0  0  0
  121.2169  123.5301   84.8749 C   0  0  0  0  0  0  0  0  0  0  0  0
  119.8573  123.4639   84.2267 C   0  0  0  0  0  0  0  0  0  0  0  0
  121.8547  124.5766   84.9048 O   0  0  0  0  0  0  0  0  0  0  0  0
  127.0383  122.4364   84.0278 H   0  0  0  0  0  0  0  0  0  0  0  0
  125.8675  121.7602   82.8452 H   0  0  0  0  0  0  0  0  0  0  0  0
  126.2291  123.5197   82.8452 H   0  0  0  0  0  0  0  0  0  0  0  0
  125.8536  121.4431   87.0357 H   0  0  0  0  0  0  0  0  0  0  0  0
  122.6525  122.0401   89.8784 H   0  0  0  0  0  0  0  0  0  0  0  0
  120.5397  122.2446   89.2879 H   0  0  0  0  0  0  0  0  0  0  0  0
  120.1994  123.1744   87.7891 H   0  0  0  0  0  0  0  0  0  0  0  0
  120.0493  121.3844   87.7891 H   0  0  0  0  0  0  0  0  0  0  0  0
  121.2995  121.4622   84.8525 H   0  0  0  0  0  0  0  0  0  0  0  0
  119.0813  123.4261   85.0055 H   0  0  0  0  0  0  0  0  0  0  0  0
  119.7057  124.3557   83.6009 H   0  0  0  0  0  0  0  0  0  0  0  0
  119.7930  122.5615   83.6009 H   0  0  0  0  0  0  0  0  0  0  0  0
  1  2  1  0
  2  3  1  0
  3  4  2  0
  3  5  1  0
  5  6  2  0
  6  7  1  0
  7  8  1  0
  8  9  2  0
  8 10  1  0
  7 11  2  0
 11 12  1  0
 12 13  1  0
 12 14  2  0
 14 15  1  0
 15 16  1  0
 16 17  1  0
 16 18  2  0
 14  5  1  0
  1 19  1  0
  1 20  1  0
  1 21  1  0
  6 22  1  0
 11 23  1  0
 13 24  1  0
 13 25  1  0
 13 26  1  0
 15 27  1  0
 17 28  1  0
 17 29  1  0
 17 30  1  0
M  CHG  2   8   1  10  -1
M  END
>  <loss>  (24) 
0.32909706234931946

>  <score>  (24) 
6.588595867156982

$$$$
CTRBXYMUCRFWGM-UHFFFAOYSA-N
     RDKit          3D

 30 30  0  0  0  0  0  0  0  0999 V2000
  126.1436  122.7182   83.5249 C   0  0  0  0  0  0  0  0  0  0  0  0
  125.1139  122.9340   84.4925 O   0  0  0  0  0  0  0  0  0  0  0  0
  124.3751  121.8341   84.7765 C   0  0  0  0  0  0  0  0  0  0  0  0
  124.1436  120.9150   84.0035 O   0  0  0  0  0  0  0  0  0  0  0  0
  123.8734  121.8682   86.1864 C   0  0  0  0  0  0  0  0  0  0  0  0
  124.7809  121.6937   87.2464 C   0  0  0  0  0  0  0  0  0  0  0  0
  124.3216  121.7164   88.5646 C   0  0  0  0  0  0  0  0  0  0  0  0
  125.2687  121.5230   89.6713 N   0  0  0  0  0  4  0  0  0  0  0  0
  125.5014  122.4947   90.4039 O   0  0  0  0  0  0  0  0  0  0  0  0
  125.7744  120.4008   89.8091 O   0  0  0  0  0  1  0  0  0  0  0  0
  122.9713  121.9476   88.8388 C   0  0  0  0  0  0  0  0  0  0  0  0
  122.0495  122.1535   87.7927 C   0  0  0  0  0  0  0  0  0  0  0  0
  120.6434  122.5126   88.2021 C   0  0  0  0  0  0  0  0  0  0  0  0
  122.4881  122.0562   86.4508 C   0  0  0  0  0  0  0  0  0  0  0  0
  121.6013  122.1903   85.3478 N   0  0  0  0  0  0  0  0  0  0  0  0
  121.1827  123.3895   84.8001 C   0  0  0  0  0  0  0  0  0  0  0  0
  119.8085  123.2979   84.1868 C   0  0  0  0  0  0  0  0  0  0  0  0
  121.7934  124.4521   84.8315 O   0  0  0  0  0  0  0  0  0  0  0  0
  127.0949  122.5189   84.0400 H   0  0  0  0  0  0  0  0  0  0  0  0
  125.8800  121.8558   82.8950 H   0  0  0  0  0  0  0  0  0  0  0  0
  126.2484  123.6139   82.8950 H   0  0  0  0  0  0  0  0  0  0  0  0
  125.8499  121.5397   87.0375 H   0  0  0  0  0  0  0  0  0  0  0  0
  122.6240  121.9692   89.8823 H   0  0  0  0  0  0  0  0  0  0  0  0
  120.5744  122.5302   89.2998 H   0  0  0  0  0  0  0  0  0  0  0  0
  120.3873  123.5049   87.8027 H   0  0  0  0  0  0  0  0  0  0  0  0
  119.9428  121.7645   87.8027 H   0  0  0  0  0  0  0  0  0  0  0  0
  121.2414  121.3243   84.9220 H   0  0  0  0  0  0  0  0  0  0  0  0
  119.0533  123.2476   84.9850 H   0  0  0  0  0  0  0  0  0  0  0  0
  119.6250  124.1858   83.5639 H   0  0  0  0  0  0  0  0  0  0  0  0
  119.7445  122.3935   83.5639 H   0  0  0  0  0  0  0  0  0  0  0  0
  1  2  1  0
  2  3  1  0
  3  4  2  0
  3  5  1  0
  5  6  2  0
  6  7  1  0
  7  8  1  0
  8  9  2  0
  8 10  1  0
  7 11  2  0
 11 12  1  0
 12 13  1  0
 12 14  2  0
 14 15  1  0
 15 16  1  0
 16 17  1  0
 16 18  2  0
 14  5  1  0
  1 19  1  0
  1 20  1  0
  1 21  1  0
  6 22  1  0
 11 23  1  0
 13 24  1  0
 13 25  1  0
 13 26  1  0
 15 27  1  0
 17 28  1  0
 17 29  1  0
 17 30  1  0
M  CHG  2   8   1  10  -1
M  END
>  <loss>  (25) 
0.3291645050048828

>  <score>  (25) 
6.469125270843506

$$$$
