DIHXJZHAIHGSAW-UHFFFAOYSA-N
     RDKit          3D

 24 24  0  0  0  0  0  0  0  0999 V2000
  126.5946  123.0983   83.7679 N   0  0  0  0  0  0  0  0  0  0  0  0
  125.4738  123.6440   84.0716 C   0  0  0  0  0  0  0  0  0  0  0  0
  125.1638  124.8789   83.6233 N   0  0  0  0  0  0  0  0  0  0  0  0
  124.6210  122.9067   84.8116 N   0  0  0  0  0  0  0  0  0  0  0  0
  125.0901  122.1164   85.7212 C   0  0  0  0  0  0  0  0  0  0  0  0
  126.4137  121.9315   86.0200 N   0  0  0  0  0  0  0  0  0  0  0  0
  124.3463  121.3006   86.5339 N   0  0  0  0  0  0  0  0  0  0  0  0
  123.3392  121.6540   87.4555 C   0  0  0  0  0  0  0  0  0  0  0  0
  122.1358  122.1885   86.9600 C   0  0  0  0  0  0  0  0  0  0  0  0
  121.0803  122.5241   87.8134 C   0  0  0  0  0  0  0  0  0  0  0  0
  121.2037  122.3135   89.1830 C   0  0  0  0  0  0  0  0  0  0  0  0
  122.3782  121.7622   89.6865 C   0  0  0  0  0  0  0  0  0  0  0  0
  122.5238  121.4776   91.3789 Cl  0  0  0  0  0  0  0  0  0  0  0  0
  123.4332  121.4279   88.8335 C   0  0  0  0  0  0  0  0  0  0  0  0
  126.8194  122.1554   84.1162 H   0  0  0  0  0  0  0  0  0  0  0  0
  124.2608  125.3062   83.8741 H   0  0  0  0  0  0  0  0  0  0  0  0
  125.8304  125.3940   83.0306 H   0  0  0  0  0  0  0  0  0  0  0  0
  126.6865  121.2760   86.7662 H   0  0  0  0  0  0  0  0  0  0  0  0
  127.1364  122.4479   85.4985 H   0  0  0  0  0  0  0  0  0  0  0  0
  124.5507  120.2937   86.4617 H   0  0  0  0  0  0  0  0  0  0  0  0
  122.0228  122.3459   85.8772 H   0  0  0  0  0  0  0  0  0  0  0  0
  120.1545  122.9535   87.4029 H   0  0  0  0  0  0  0  0  0  0  0  0
  120.3803  122.5803   89.8619 H   0  0  0  0  0  0  0  0  0  0  0  0
  124.3484  120.9818   89.2499 H   0  0  0  0  0  0  0  0  0  0  0  0
  1  2  2  3
  2  3  1  0
  2  4  1  0
  4  5  2  3
  5  6  1  0
  5  7  1  0
  7  8  1  0
  8  9  2  0
  9 10  1  0
 10 11  2  0
 11 12  1  0
 12 13  1  0
 12 14  2  0
 14  8  1  0
  1 15  1  0
  3 16  1  0
  3 17  1  0
  6 18  1  0
  6 19  1  0
  7 20  1  0
  9 21  1  0
 10 22  1  0
 11 23  1  0
 14 24  1  0
M  END
>  <loss>  (1) 
0.6567448377609253

>  <score>  (1) 
3.227123737335205

$$$$
DIHXJZHAIHGSAW-UHFFFAOYSA-N
     RDKit          3D

 24 24  0  0  0  0  0  0  0  0999 V2000
  126.3964  123.2664   83.3302 N   0  0  0  0  0  0  0  0  0  0  0  0
  125.6808  123.9196   84.1724 C   0  0  0  0  0  0  0  0  0  0  0  0
  125.2980  125.1856   83.9059 N   0  0  0  0  0  0  0  0  0  0  0  0
  125.3877  123.2775   85.3225 N   0  0  0  0  0  0  0  0  0  0  0  0
  124.6165  122.2402   85.3148 C   0  0  0  0  0  0  0  0  0  0  0  0
  124.0129  121.6965   84.2117 N   0  0  0  0  0  0  0  0  0  0  0  0
  124.2469  121.5044   86.4101 N   0  0  0  0  0  0  0  0  0  0  0  0
  123.2211  121.7435   87.3463 C   0  0  0  0  0  0  0  0  0  0  0  0
  121.9842  122.3139   87.0216 C   0  0  0  0  0  0  0  0  0  0  0  0
  121.0166  122.5644   88.0021 C   0  0  0  0  0  0  0  0  0  0  0  0
  121.2775  122.2615   89.3349 C   0  0  0  0  0  0  0  0  0  0  0  0
  122.5088  121.7162   89.6791 C   0  0  0  0  0  0  0  0  0  0  0  0
  122.8503  121.3503   91.3263 Cl  0  0  0  0  0  0  0  0  0  0  0  0
  123.4741  121.4659   88.7006 C   0  0  0  0  0  0  0  0  0  0  0  0
  126.6851  122.3002   83.5400 H   0  0  0  0  0  0  0  0  0  0  0  0
  124.7239  125.7040   84.5860 H   0  0  0  0  0  0  0  0  0  0  0  0
  125.5799  125.6337   83.0224 H   0  0  0  0  0  0  0  0  0  0  0  0
  123.4134  120.8647   84.3101 H   0  0  0  0  0  0  0  0  0  0  0  0
  124.1587  122.1194   83.2839 H   0  0  0  0  0  0  0  0  0  0  0  0
  124.8002  120.6511   86.5730 H   0  0  0  0  0  0  0  0  0  0  0  0
  121.7682  122.5706   85.9741 H   0  0  0  0  0  0  0  0  0  0  0  0
  120.0481  123.0017   87.7181 H   0  0  0  0  0  0  0  0  0  0  0  0
  120.5177  122.4514   90.1074 H   0  0  0  0  0  0  0  0  0  0  0  0
  124.4470  121.0452   88.9947 H   0  0  0  0  0  0  0  0  0  0  0  0
  1  2  2  3
  2  3  1  0
  2  4  1  0
  4  5  2  3
  5  6  1  0
  5  7  1  0
  7  8  1  0
  8  9  2  0
  9 10  1  0
 10 11  2  0
 11 12  1  0
 12 13  1  0
 12 14  2  0
 14  8  1  0
  1 15  1  0
  3 16  1  0
  3 17  1  0
  6 18  1  0
  6 19  1  0
  7 20  1  0
  9 21  1  0
 10 22  1  0
 11 23  1  0
 14 24  1  0
M  END
>  <loss>  (2) 
0.6537026166915894

>  <score>  (2) 
3.1442768573760986

$$$$
DIHXJZHAIHGSAW-UHFFFAOYSA-N
     RDKit          3D

 24 24  0  0  0  0  0  0  0  0999 V2000
  126.6200  123.7235   84.1800 N   0  0  0  0  0  0  0  0  0  0  0  0
  125.3367  123.6394   84.0764 C   0  0  0  0  0  0  0  0  0  0  0  0
  124.6842  124.1990   83.0354 N   0  0  0  0  0  0  0  0  0  0  0  0
  124.5979  122.9467   84.9764 N   0  0  0  0  0  0  0  0  0  0  0  0
  125.0950  122.0000   85.7029 C   0  0  0  0  0  0  0  0  0  0  0  0
  126.3959  121.5748   85.6868 N   0  0  0  0  0  0  0  0  0  0  0  0
  124.4176  121.2666   86.6425 N   0  0  0  0  0  0  0  0  0  0  0  0
  123.3352  121.6554   87.4546 C   0  0  0  0  0  0  0  0  0  0  0  0
  122.1350  122.1691   86.9470 C   0  0  0  0  0  0  0  0  0  0  0  0
  121.0735  122.5108   87.7925 C   0  0  0  0  0  0  0  0  0  0  0  0
  121.1915  122.3306   89.1674 C   0  0  0  0  0  0  0  0  0  0  0  0
  122.3685  121.8019   89.6863 C   0  0  0  0  0  0  0  0  0  0  0  0
  122.5197  121.5616   91.3844 Cl  0  0  0  0  0  0  0  0  0  0  0  0
  123.4277  121.4603   88.8423 C   0  0  0  0  0  0  0  0  0  0  0  0
  127.1015  123.2905   84.9809 H   0  0  0  0  0  0  0  0  0  0  0  0
  123.6592  124.1221   82.9686 H   0  0  0  0  0  0  0  0  0  0  0  0
  125.2113  124.7029   82.3080 H   0  0  0  0  0  0  0  0  0  0  0  0
  126.6951  120.8090   86.3071 H   0  0  0  0  0  0  0  0  0  0  0  0
  127.0756  122.0207   85.0542 H   0  0  0  0  0  0  0  0  0  0  0  0
  124.7453  120.2988   86.7720 H   0  0  0  0  0  0  0  0  0  0  0  0
  122.0246  122.3067   85.8612 H   0  0  0  0  0  0  0  0  0  0  0  0
  120.1450  122.9223   87.3700 H   0  0  0  0  0  0  0  0  0  0  0  0
  120.3624  122.6034   89.8368 H   0  0  0  0  0  0  0  0  0  0  0  0
  124.3464  121.0327   89.2702 H   0  0  0  0  0  0  0  0  0  0  0  0
  1  2  2  3
  2  3  1  0
  2  4  1  0
  4  5  2  3
  5  6  1  0
  5  7  1  0
  7  8  1  0
  8  9  2  0
  9 10  1  0
 10 11  2  0
 11 12  1  0
 12 13  1  0
 12 14  2  0
 14  8  1  0
  1 15  1  0
  3 16  1  0
  3 17  1  0
  6 18  1  0
  6 19  1  0
  7 20  1  0
  9 21  1  0
 10 22  1  0
 11 23  1  0
 14 24  1  0
M  END
>  <loss>  (3) 
0.6598689556121826

>  <score>  (3) 
3.1700279712677

$$$$
DIHXJZHAIHGSAW-UHFFFAOYSA-N
     RDKit          3D

 24 24  0  0  0  0  0  0  0  0999 V2000
  126.2314  123.4897   83.0855 N   0  0  0  0  0  0  0  0  0  0  0  0
  125.9309  123.9074   84.2616 C   0  0  0  0  0  0  0  0  0  0  0  0
  126.1147  125.2020   84.5940 N   0  0  0  0  0  0  0  0  0  0  0  0
  125.4728  122.9737   85.1214 N   0  0  0  0  0  0  0  0  0  0  0  0
  124.2381  122.5937   85.0782 C   0  0  0  0  0  0  0  0  0  0  0  0
  123.2808  123.0702   84.2218 N   0  0  0  0  0  0  0  0  0  0  0  0
  123.6555  121.6576   85.8917 N   0  0  0  0  0  0  0  0  0  0  0  0
  122.9629  121.8319   87.1066 C   0  0  0  0  0  0  0  0  0  0  0  0
  121.7314  122.4890   87.2166 C   0  0  0  0  0  0  0  0  0  0  0  0
  121.1080  122.6672   88.4576 C   0  0  0  0  0  0  0  0  0  0  0  0
  121.7173  122.2022   89.6189 C   0  0  0  0  0  0  0  0  0  0  0  0
  122.9511  121.5680   89.5315 C   0  0  0  0  0  0  0  0  0  0  0  0
  123.7230  121.0009   90.9620 Cl  0  0  0  0  0  0  0  0  0  0  0  0
  123.5728  121.3900   88.2932 C   0  0  0  0  0  0  0  0  0  0  0  0
  126.0885  122.5000   82.8384 H   0  0  0  0  0  0  0  0  0  0  0  0
  125.8715  125.5304   85.5395 H   0  0  0  0  0  0  0  0  0  0  0  0
  126.4982  125.8619   83.9024 H   0  0  0  0  0  0  0  0  0  0  0  0
  122.3202  122.7012   84.2664 H   0  0  0  0  0  0  0  0  0  0  0  0
  123.5217  123.7974   83.5333 H   0  0  0  0  0  0  0  0  0  0  0  0
  123.7355  120.6832   85.5677 H   0  0  0  0  0  0  0  0  0  0  0  0
  121.2434  122.8735   86.3089 H   0  0  0  0  0  0  0  0  0  0  0  0
  120.1344  123.1758   88.5146 H   0  0  0  0  0  0  0  0  0  0  0  0
  121.2281  122.3350   90.5951 H   0  0  0  0  0  0  0  0  0  0  0  0
  124.5548  120.8964   88.2461 H   0  0  0  0  0  0  0  0  0  0  0  0
  1  2  2  3
  2  3  1  0
  2  4  1  0
  4  5  2  3
  5  6  1  0
  5  7  1  0
  7  8  1  0
  8  9  2  0
  9 10  1  0
 10 11  2  0
 11 12  1  0
 12 13  1  0
 12 14  2  0
 14  8  1  0
  1 15  1  0
  3 16  1  0
  3 17  1  0
  6 18  1  0
  6 19  1  0
  7 20  1  0
  9 21  1  0
 10 22  1  0
 11 23  1  0
 14 24  1  0
M  END
>  <loss>  (4) 
0.631974458694458

>  <score>  (4) 
3.017432928085327

$$$$
DIHXJZHAIHGSAW-UHFFFAOYSA-N
     RDKit          3D

 24 24  0  0  0  0  0  0  0  0999 V2000
  126.5187  123.1659   83.6775 N   0  0  0  0  0  0  0  0  0  0  0  0
  125.4089  123.7137   84.0157 C   0  0  0  0  0  0  0  0  0  0  0  0
  125.1021  124.9621   83.6041 N   0  0  0  0  0  0  0  0  0  0  0  0
  124.5632  122.9657   84.7532 N   0  0  0  0  0  0  0  0  0  0  0  0
  125.0407  122.1672   85.6512 C   0  0  0  0  0  0  0  0  0  0  0  0
  126.3668  121.9834   85.9394 N   0  0  0  0  0  0  0  0  0  0  0  0
  124.3048  121.3403   86.4598 N   0  0  0  0  0  0  0  0  0  0  0  0
  123.3142  121.6817   87.4035 C   0  0  0  0  0  0  0  0  0  0  0  0
  122.0922  122.1979   86.9346 C   0  0  0  0  0  0  0  0  0  0  0  0
  121.0519  122.5206   87.8113 C   0  0  0  0  0  0  0  0  0  0  0  0
  121.2097  122.3153   89.1782 C   0  0  0  0  0  0  0  0  0  0  0  0
  122.4032  121.7820   89.6557 C   0  0  0  0  0  0  0  0  0  0  0  0
  122.5917  121.5040   91.3450 Cl  0  0  0  0  0  0  0  0  0  0  0  0
  123.4430  121.4606   88.7795 C   0  0  0  0  0  0  0  0  0  0  0  0
  126.7412  122.2127   83.9980 H   0  0  0  0  0  0  0  0  0  0  0  0
  124.2079  125.3910   83.8824 H   0  0  0  0  0  0  0  0  0  0  0  0
  125.7622  125.4859   83.0118 H   0  0  0  0  0  0  0  0  0  0  0  0
  126.6465  121.3208   86.6768 H   0  0  0  0  0  0  0  0  0  0  0  0
  127.0845  122.5077   85.4189 H   0  0  0  0  0  0  0  0  0  0  0  0
  124.5021  120.3338   86.3654 H   0  0  0  0  0  0  0  0  0  0  0  0
  121.9522  122.3509   85.8544 H   0  0  0  0  0  0  0  0  0  0  0  0
  120.1110  122.9359   87.4212 H   0  0  0  0  0  0  0  0  0  0  0  0
  120.3985  122.5722   89.8753 H   0  0  0  0  0  0  0  0  0  0  0  0
  124.3738  121.0286   89.1757 H   0  0  0  0  0  0  0  0  0  0  0  0
  1  2  2  3
  2  3  1  0
  2  4  1  0
  4  5  2  3
  5  6  1  0
  5  7  1  0
  7  8  1  0
  8  9  2  0
  9 10  1  0
 10 11  2  0
 11 12  1  0
 12 13  1  0
 12 14  2  0
 14  8  1  0
  1 15  1  0
  3 16  1  0
  3 17  1  0
  6 18  1  0
  6 19  1  0
  7 20  1  0
  9 21  1  0
 10 22  1  0
 11 23  1  0
 14 24  1  0
M  END
>  <loss>  (5) 
0.6549451947212219

>  <score>  (5) 
3.1276438236236572

$$$$
DIHXJZHAIHGSAW-UHFFFAOYSA-N
     RDKit          3D

 24 24  0  0  0  0  0  0  0  0999 V2000
  126.4165  125.1076   84.6273 N   0  0  0  0  0  0  0  0  0  0  0  0
  125.9651  123.9593   84.2499 C   0  0  0  0  0  0  0  0  0  0  0  0
  125.9737  123.6017   82.9481 N   0  0  0  0  0  0  0  0  0  0  0  0
  125.5118  123.0483   85.1444 N   0  0  0  0  0  0  0  0  0  0  0  0
  124.3097  122.5744   85.1060 C   0  0  0  0  0  0  0  0  0  0  0  0
  123.3493  122.8958   84.1854 N   0  0  0  0  0  0  0  0  0  0  0  0
  123.7845  121.6423   85.9635 N   0  0  0  0  0  0  0  0  0  0  0  0
  123.0363  121.8454   87.1387 C   0  0  0  0  0  0  0  0  0  0  0  0
  121.7327  122.3577   87.1446 C   0  0  0  0  0  0  0  0  0  0  0  0
  121.0156  122.5107   88.3367 C   0  0  0  0  0  0  0  0  0  0  0  0
  121.5901  122.1389   89.5485 C   0  0  0  0  0  0  0  0  0  0  0  0
  122.8758  121.6089   89.5583 C   0  0  0  0  0  0  0  0  0  0  0  0
  123.5905  121.1324   91.0504 Cl  0  0  0  0  0  0  0  0  0  0  0  0
  123.5911  121.4556   88.3685 C   0  0  0  0  0  0  0  0  0  0  0  0
  126.4023  125.3640   85.6248 H   0  0  0  0  0  0  0  0  0  0  0  0
  125.6093  122.6810   82.6645 H   0  0  0  0  0  0  0  0  0  0  0  0
  126.3446  124.2496   82.2385 H   0  0  0  0  0  0  0  0  0  0  0  0
  122.4170  122.4614   84.2406 H   0  0  0  0  0  0  0  0  0  0  0  0
  123.5588  123.5721   83.4373 H   0  0  0  0  0  0  0  0  0  0  0  0
  123.9617  120.6589   85.7137 H   0  0  0  0  0  0  0  0  0  0  0  0
  121.2628  122.6457   86.1927 H   0  0  0  0  0  0  0  0  0  0  0  0
  119.9969  122.9252   88.3158 H   0  0  0  0  0  0  0  0  0  0  0  0
  121.0329  122.2629   90.4888 H   0  0  0  0  0  0  0  0  0  0  0  0
  124.6025  121.0238   88.3951 H   0  0  0  0  0  0  0  0  0  0  0  0
  1  2  2  3
  2  3  1  0
  2  4  1  0
  4  5  2  3
  5  6  1  0
  5  7  1  0
  7  8  1  0
  8  9  2  0
  9 10  1  0
 10 11  2  0
 11 12  1  0
 12 13  1  0
 12 14  2  0
 14  8  1  0
  1 15  1  0
  3 16  1  0
  3 17  1  0
  6 18  1  0
  6 19  1  0
  7 20  1  0
  9 21  1  0
 10 22  1  0
 11 23  1  0
 14 24  1  0
M  END
>  <loss>  (6) 
0.6291250586509705

>  <score>  (6) 
2.975412130355835

$$$$
DIHXJZHAIHGSAW-UHFFFAOYSA-N
     RDKit          3D

 24 24  0  0  0  0  0  0  0  0999 V2000
  126.6712  123.2506   83.5102 N   0  0  0  0  0  0  0  0  0  0  0  0
  125.8551  123.8443   84.3036 C   0  0  0  0  0  0  0  0  0  0  0  0
  125.4424  125.1020   84.0426 N   0  0  0  0  0  0  0  0  0  0  0  0
  125.4889  123.1513   85.4020 N   0  0  0  0  0  0  0  0  0  0  0  0
  124.6073  122.2098   85.3182 C   0  0  0  0  0  0  0  0  0  0  0  0
  123.9506  121.8238   84.1795 N   0  0  0  0  0  0  0  0  0  0  0  0
  124.1548  121.4367   86.3551 N   0  0  0  0  0  0  0  0  0  0  0  0
  123.1656  121.7184   87.3183 C   0  0  0  0  0  0  0  0  0  0  0  0
  121.9404  122.3293   87.0246 C   0  0  0  0  0  0  0  0  0  0  0  0
  121.0109  122.6207   88.0303 C   0  0  0  0  0  0  0  0  0  0  0  0
  121.2996  122.3187   89.3575 C   0  0  0  0  0  0  0  0  0  0  0  0
  122.5207  121.7332   89.6708 C   0  0  0  0  0  0  0  0  0  0  0  0
  122.8969  121.3678   91.3105 Cl  0  0  0  0  0  0  0  0  0  0  0  0
  123.4479  121.4421   88.6671 C   0  0  0  0  0  0  0  0  0  0  0  0
  126.9822  122.2904   83.7154 H   0  0  0  0  0  0  0  0  0  0  0  0
  124.7876  125.5726   84.6834 H   0  0  0  0  0  0  0  0  0  0  0  0
  125.7822  125.5917   83.2026 H   0  0  0  0  0  0  0  0  0  0  0  0
  123.2621  121.0586   84.2164 H   0  0  0  0  0  0  0  0  0  0  0  0
  124.1453  122.2987   83.2866 H   0  0  0  0  0  0  0  0  0  0  0  0
  124.6038  120.5139   86.4435 H   0  0  0  0  0  0  0  0  0  0  0  0
  121.7031  122.5857   85.9815 H   0  0  0  0  0  0  0  0  0  0  0  0
  120.0503  123.0895   87.7706 H   0  0  0  0  0  0  0  0  0  0  0  0
  120.5696  122.5408   90.1499 H   0  0  0  0  0  0  0  0  0  0  0  0
  124.4137  120.9898   88.9367 H   0  0  0  0  0  0  0  0  0  0  0  0
  1  2  2  3
  2  3  1  0
  2  4  1  0
  4  5  2  3
  5  6  1  0
  5  7  1  0
  7  8  1  0
  8  9  2  0
  9 10  1  0
 10 11  2  0
 11 12  1  0
 12 13  1  0
 12 14  2  0
 14  8  1  0
  1 15  1  0
  3 16  1  0
  3 17  1  0
  6 18  1  0
  6 19  1  0
  7 20  1  0
  9 21  1  0
 10 22  1  0
 11 23  1  0
 14 24  1  0
M  END
>  <loss>  (7) 
0.6538401246070862

>  <score>  (7) 
3.0866940021514893

$$$$
DIHXJZHAIHGSAW-UHFFFAOYSA-N
     RDKit          3D

 24 24  0  0  0  0  0  0  0  0999 V2000
  126.5502  124.9599   84.7564 N   0  0  0  0  0  0  0  0  0  0  0  0
  125.9324  123.9432   84.2762 C   0  0  0  0  0  0  0  0  0  0  0  0
  125.7462  123.8143   82.9455 N   0  0  0  0  0  0  0  0  0  0  0  0
  125.5292  123.0062   85.1582 N   0  0  0  0  0  0  0  0  0  0  0  0
  124.3167  122.5604   85.1006 C   0  0  0  0  0  0  0  0  0  0  0  0
  123.3551  122.9604   84.2113 N   0  0  0  0  0  0  0  0  0  0  0  0
  123.7674  121.6242   85.9378 N   0  0  0  0  0  0  0  0  0  0  0  0
  123.0864  121.8214   87.1567 C   0  0  0  0  0  0  0  0  0  0  0  0
  121.7826  122.3489   87.1175 C   0  0  0  0  0  0  0  0  0  0  0  0
  121.0349  122.5338   88.2844 C   0  0  0  0  0  0  0  0  0  0  0  0
  121.5740  122.1763   89.5160 C   0  0  0  0  0  0  0  0  0  0  0  0
  122.8528  121.6299   89.5694 C   0  0  0  0  0  0  0  0  0  0  0  0
  123.5128  121.1637   91.0904 Cl  0  0  0  0  0  0  0  0  0  0  0  0
  123.6003  121.4462   88.4032 C   0  0  0  0  0  0  0  0  0  0  0  0
  126.6860  125.0467   85.7738 H   0  0  0  0  0  0  0  0  0  0  0  0
  125.2485  122.9934   82.5722 H   0  0  0  0  0  0  0  0  0  0  0  0
  126.1017  124.5370   82.3034 H   0  0  0  0  0  0  0  0  0  0  0  0
  122.4144  122.5424   84.2474 H   0  0  0  0  0  0  0  0  0  0  0  0
  123.5726  123.6792   83.5064 H   0  0  0  0  0  0  0  0  0  0  0  0
  123.8654  120.6443   85.6358 H   0  0  0  0  0  0  0  0  0  0  0  0
  121.3418  122.6218   86.1473 H   0  0  0  0  0  0  0  0  0  0  0  0
  120.0227  122.9609   88.2287 H   0  0  0  0  0  0  0  0  0  0  0  0
  120.9947  122.3241   90.4393 H   0  0  0  0  0  0  0  0  0  0  0  0
  124.6044  121.0013   88.4656 H   0  0  0  0  0  0  0  0  0  0  0  0
  1  2  2  3
  2  3  1  0
  2  4  1  0
  4  5  2  3
  5  6  1  0
  5  7  1  0
  7  8  1  0
  8  9  2  0
  9 10  1  0
 10 11  2  0
 11 12  1  0
 12 13  1  0
 12 14  2  0
 14  8  1  0
  1 15  1  0
  3 16  1  0
  3 17  1  0
  6 18  1  0
  6 19  1  0
  7 20  1  0
  9 21  1  0
 10 22  1  0
 11 23  1  0
 14 24  1  0
M  END
>  <loss>  (8) 
0.6291934847831726

>  <score>  (8) 
2.9573452472686768

$$$$
DIHXJZHAIHGSAW-UHFFFAOYSA-N
     RDKit          3D

 24 24  0  0  0  0  0  0  0  0999 V2000
  127.1465  120.1398   90.9264 N   0  0  0  0  0  0  0  0  0  0  0  0
  126.1778  120.9872   90.8350 C   0  0  0  0  0  0  0  0  0  0  0  0
  126.1097  122.0554   91.6583 N   0  0  0  0  0  0  0  0  0  0  0  0
  125.1929  120.8502   89.9149 N   0  0  0  0  0  0  0  0  0  0  0  0
  125.4129  120.8284   88.6415 C   0  0  0  0  0  0  0  0  0  0  0  0
  126.6306  120.9696   88.0337 N   0  0  0  0  0  0  0  0  0  0  0  0
  124.4604  120.6931   87.6653 N   0  0  0  0  0  0  0  0  0  0  0  0
  123.4547  121.5991   87.2795 C   0  0  0  0  0  0  0  0  0  0  0  0
  122.2308  121.7246   87.9493 C   0  0  0  0  0  0  0  0  0  0  0  0
  121.2493  122.6208   87.5111 C   0  0  0  0  0  0  0  0  0  0  0  0
  121.4733  123.4028   86.3819 C   0  0  0  0  0  0  0  0  0  0  0  0
  122.6755  123.2771   85.6942 C   0  0  0  0  0  0  0  0  0  0  0  0
  122.9581  124.2309   84.2890 Cl  0  0  0  0  0  0  0  0  0  0  0  0
  123.6548  122.3820   86.1310 C   0  0  0  0  0  0  0  0  0  0  0  0
  127.1840  119.3300   90.2910 H   0  0  0  0  0  0  0  0  0  0  0  0
  125.3299  122.7228   91.5726 H   0  0  0  0  0  0  0  0  0  0  0  0
  126.8375  122.2028   92.3721 H   0  0  0  0  0  0  0  0  0  0  0  0
  126.7003  120.9373   87.0066 H   0  0  0  0  0  0  0  0  0  0  0  0
  127.4775  121.1081   88.6033 H   0  0  0  0  0  0  0  0  0  0  0  0
  124.4838  119.8063   87.1419 H   0  0  0  0  0  0  0  0  0  0  0  0
  122.0373  121.1060   88.8380 H   0  0  0  0  0  0  0  0  0  0  0  0
  120.2999  122.7072   88.0598 H   0  0  0  0  0  0  0  0  0  0  0  0
  120.7073  124.1129   86.0369 H   0  0  0  0  0  0  0  0  0  0  0  0
  124.5951  122.2890   85.5678 H   0  0  0  0  0  0  0  0  0  0  0  0
  1  2  2  3
  2  3  1  0
  2  4  1  0
  4  5  2  3
  5  6  1  0
  5  7  1  0
  7  8  1  0
  8  9  2  0
  9 10  1  0
 10 11  2  0
 11 12  1  0
 12 13  1  0
 12 14  2  0
 14  8  1  0
  1 15  1  0
  3 16  1  0
  3 17  1  0
  6 18  1  0
  6 19  1  0
  7 20  1  0
  9 21  1  0
 10 22  1  0
 11 23  1  0
 14 24  1  0
M  END
>  <loss>  (9) 
0.6520395278930664

>  <score>  (9) 
3.01316237449646

$$$$
DIHXJZHAIHGSAW-UHFFFAOYSA-N
     RDKit          3D

 24 24  0  0  0  0  0  0  0  0999 V2000
  124.8645  125.3184   84.0527 N   0  0  0  0  0  0  0  0  0  0  0  0
  124.2068  124.2187   83.9759 C   0  0  0  0  0  0  0  0  0  0  0  0
  123.7755  123.7630   82.7814 N   0  0  0  0  0  0  0  0  0  0  0  0
  123.9535  123.5983   85.1472 N   0  0  0  0  0  0  0  0  0  0  0  0
  124.4124  122.4110   85.3717 C   0  0  0  0  0  0  0  0  0  0  0  0
  125.1547  121.6589   84.4998 N   0  0  0  0  0  0  0  0  0  0  0  0
  124.2265  121.6796   86.5154 N   0  0  0  0  0  0  0  0  0  0  0  0
  123.1978  121.7618   87.4750 C   0  0  0  0  0  0  0  0  0  0  0  0
  121.8851  122.1509   87.1820 C   0  0  0  0  0  0  0  0  0  0  0  0
  120.9133  122.2525   88.1848 C   0  0  0  0  0  0  0  0  0  0  0  0
  121.2440  121.9804   89.5086 C   0  0  0  0  0  0  0  0  0  0  0  0
  122.5482  121.6153   89.8216 C   0  0  0  0  0  0  0  0  0  0  0  0
  122.9747  121.2903   91.4575 Cl  0  0  0  0  0  0  0  0  0  0  0  0
  123.5177  121.5136   88.8209 C   0  0  0  0  0  0  0  0  0  0  0  0
  125.1908  125.6605   84.9678 H   0  0  0  0  0  0  0  0  0  0  0  0
  123.2483  122.8799   82.7270 H   0  0  0  0  0  0  0  0  0  0  0  0
  123.9735  124.2983   81.9240 H   0  0  0  0  0  0  0  0  0  0  0  0
  125.4750  120.7191   84.7740 H   0  0  0  0  0  0  0  0  0  0  0  0
  125.3925  122.0332   83.5702 H   0  0  0  0  0  0  0  0  0  0  0  0
  124.9442  120.9646   86.7011 H   0  0  0  0  0  0  0  0  0  0  0  0
  121.6115  122.3816   86.1418 H   0  0  0  0  0  0  0  0  0  0  0  0
  119.8859  122.5481   87.9254 H   0  0  0  0  0  0  0  0  0  0  0  0
  120.4820  122.0534   90.2986 H   0  0  0  0  0  0  0  0  0  0  0  0
  124.5471  121.2350   89.0905 H   0  0  0  0  0  0  0  0  0  0  0  0
  1  2  2  3
  2  3  1  0
  2  4  1  0
  4  5  2  3
  5  6  1  0
  5  7  1  0
  7  8  1  0
  8  9  2  0
  9 10  1  0
 10 11  2  0
 11 12  1  0
 12 13  1  0
 12 14  2  0
 14  8  1  0
  1 15  1  0
  3 16  1  0
  3 17  1  0
  6 18  1  0
  6 19  1  0
  7 20  1  0
  9 21  1  0
 10 22  1  0
 11 23  1  0
 14 24  1  0
M  END
>  <loss>  (10) 
0.6875196099281311

>  <score>  (10) 
3.1428074836730957

$$$$
DIHXJZHAIHGSAW-UHFFFAOYSA-N
     RDKit          3D

 24 24  0  0  0  0  0  0  0  0999 V2000
  126.1534  121.9491   91.6123 N   0  0  0  0  0  0  0  0  0  0  0  0
  126.1940  120.9586   90.7978 C   0  0  0  0  0  0  0  0  0  0  0  0
  127.2193  120.0809   90.8305 N   0  0  0  0  0  0  0  0  0  0  0  0
  125.1474  120.8225   89.9583 N   0  0  0  0  0  0  0  0  0  0  0  0
  125.3551  120.7870   88.6825 C   0  0  0  0  0  0  0  0  0  0  0  0
  126.5741  120.8851   88.0657 N   0  0  0  0  0  0  0  0  0  0  0  0
  124.3916  120.6683   87.7147 N   0  0  0  0  0  0  0  0  0  0  0  0
  123.4099  121.6000   87.3190 C   0  0  0  0  0  0  0  0  0  0  0  0
  122.1804  121.7602   87.9700 C   0  0  0  0  0  0  0  0  0  0  0  0
  121.2229  122.6701   87.5060 C   0  0  0  0  0  0  0  0  0  0  0  0
  121.4730  123.4263   86.3650 C   0  0  0  0  0  0  0  0  0  0  0  0
  122.6773  123.2611   85.6906 C   0  0  0  0  0  0  0  0  0  0  0  0
  122.9917  124.1776   84.2677 Cl  0  0  0  0  0  0  0  0  0  0  0  0
  123.6331  122.3538   86.1542 C   0  0  0  0  0  0  0  0  0  0  0  0
  125.3660  122.6122   91.5780 H   0  0  0  0  0  0  0  0  0  0  0  0
  127.2410  119.2896   90.1716 H   0  0  0  0  0  0  0  0  0  0  0  0
  127.9798  120.2027   91.5144 H   0  0  0  0  0  0  0  0  0  0  0  0
  126.6361  120.8456   87.0383 H   0  0  0  0  0  0  0  0  0  0  0  0
  127.4288  120.9983   88.6292 H   0  0  0  0  0  0  0  0  0  0  0  0
  124.3836  119.7732   87.2051 H   0  0  0  0  0  0  0  0  0  0  0  0
  121.9623  121.1585   88.8646 H   0  0  0  0  0  0  0  0  0  0  0  0
  120.2710  122.7875   88.0445 H   0  0  0  0  0  0  0  0  0  0  0  0
  120.7259  124.1469   86.0007 H   0  0  0  0  0  0  0  0  0  0  0  0
  124.5745  122.2277   85.5992 H   0  0  0  0  0  0  0  0  0  0  0  0
  1  2  2  3
  2  3  1  0
  2  4  1  0
  4  5  2  3
  5  6  1  0
  5  7  1  0
  7  8  1  0
  8  9  2  0
  9 10  1  0
 10 11  2  0
 11 12  1  0
 12 13  1  0
 12 14  2  0
 14  8  1  0
  1 15  1  0
  3 16  1  0
  3 17  1  0
  6 18  1  0
  6 19  1  0
  7 20  1  0
  9 21  1  0
 10 22  1  0
 11 23  1  0
 14 24  1  0
M  END
>  <loss>  (11) 
0.6482318043708801

>  <score>  (11) 
2.9409773349761963

$$$$
DIHXJZHAIHGSAW-UHFFFAOYSA-N
     RDKit          3D

 24 24  0  0  0  0  0  0  0  0999 V2000
  125.4275  123.7691   83.2015 N   0  0  0  0  0  0  0  0  0  0  0  0
  125.5878  124.1226   84.4320 C   0  0  0  0  0  0  0  0  0  0  0  0
  126.3118  125.2158   84.7535 N   0  0  0  0  0  0  0  0  0  0  0  0
  124.9980  123.4444   85.4457 N   0  0  0  0  0  0  0  0  0  0  0  0
  124.8267  122.1633   85.4186 C   0  0  0  0  0  0  0  0  0  0  0  0
  125.2105  121.3235   84.4082 N   0  0  0  0  0  0  0  0  0  0  0  0
  124.2544  121.4069   86.4085 N   0  0  0  0  0  0  0  0  0  0  0  0
  123.2417  121.7636   87.3192 C   0  0  0  0  0  0  0  0  0  0  0  0
  122.0214  122.3321   86.9324 C   0  0  0  0  0  0  0  0  0  0  0  0
  121.0307  122.6394   87.8719 C   0  0  0  0  0  0  0  0  0  0  0  0
  121.2411  122.3690   89.2208 C   0  0  0  0  0  0  0  0  0  0  0  0
  122.4388  121.7853   89.6195 C   0  0  0  0  0  0  0  0  0  0  0  0
  122.7036  121.4335   91.2839 Cl  0  0  0  0  0  0  0  0  0  0  0  0
  123.4272  121.4780   88.6816 C   0  0  0  0  0  0  0  0  0  0  0  0
  124.8719  122.9320   82.9743 H   0  0  0  0  0  0  0  0  0  0  0  0
  126.4294  125.4834   85.7411 H   0  0  0  0  0  0  0  0  0  0  0  0
  126.7466  125.7822   84.0111 H   0  0  0  0  0  0  0  0  0  0  0  0
  125.0280  120.3125   84.4816 H   0  0  0  0  0  0  0  0  0  0  0  0
  125.6818  121.7026   83.5745 H   0  0  0  0  0  0  0  0  0  0  0  0
  124.6147  120.4461   86.4983 H   0  0  0  0  0  0  0  0  0  0  0  0
  121.8379  122.5413   85.8682 H   0  0  0  0  0  0  0  0  0  0  0  0
  120.0848  123.0951   87.5439 H   0  0  0  0  0  0  0  0  0  0  0  0
  120.4680  122.6143   89.9639 H   0  0  0  0  0  0  0  0  0  0  0  0
  124.3633  121.0061   89.0146 H   0  0  0  0  0  0  0  0  0  0  0  0
  1  2  2  3
  2  3  1  0
  2  4  1  0
  4  5  2  3
  5  6  1  0
  5  7  1  0
  7  8  1  0
  8  9  2  0
  9 10  1  0
 10 11  2  0
 11 12  1  0
 12 13  1  0
 12 14  2  0
 14  8  1  0
  1 15  1  0
  3 16  1  0
  3 17  1  0
  6 18  1  0
  6 19  1  0
  7 20  1  0
  9 21  1  0
 10 22  1  0
 11 23  1  0
 14 24  1  0
M  END
>  <loss>  (12) 
0.6807019710540771

>  <score>  (12) 
3.065140962600708

$$$$
DIHXJZHAIHGSAW-UHFFFAOYSA-N
     RDKit          3D

 24 24  0  0  0  0  0  0  0  0999 V2000
  125.3944  125.4722   84.2774 N   0  0  0  0  0  0  0  0  0  0  0  0
  125.3178  124.1988   84.0841 C   0  0  0  0  0  0  0  0  0  0  0  0
  125.4997  123.6691   82.8556 N   0  0  0  0  0  0  0  0  0  0  0  0
  125.1025  123.3391   85.1088 N   0  0  0  0  0  0  0  0  0  0  0  0
  124.0768  122.5534   85.1538 C   0  0  0  0  0  0  0  0  0  0  0  0
  123.0942  122.4614   84.2054 N   0  0  0  0  0  0  0  0  0  0  0  0
  123.7993  121.6487   86.1457 N   0  0  0  0  0  0  0  0  0  0  0  0
  123.0193  121.8204   87.3052 C   0  0  0  0  0  0  0  0  0  0  0  0
  121.7053  122.3049   87.2866 C   0  0  0  0  0  0  0  0  0  0  0  0
  120.9572  122.4270   88.4630 C   0  0  0  0  0  0  0  0  0  0  0  0
  121.5107  122.0513   89.6833 C   0  0  0  0  0  0  0  0  0  0  0  0
  122.8068  121.5485   89.7171 C   0  0  0  0  0  0  0  0  0  0  0  0
  123.4962  121.0675   91.2197 Cl  0  0  0  0  0  0  0  0  0  0  0  0
  123.5532  121.4261   88.5428 C   0  0  0  0  0  0  0  0  0  0  0  0
  125.2528  125.8592   85.2214 H   0  0  0  0  0  0  0  0  0  0  0  0
  125.4350  122.6502   82.7195 H   0  0  0  0  0  0  0  0  0  0  0  0
  125.7031  124.2838   82.0547 H   0  0  0  0  0  0  0  0  0  0  0  0
  122.3144  121.8010   84.3343 H   0  0  0  0  0  0  0  0  0  0  0  0
  123.1347  123.0525   83.3629 H   0  0  0  0  0  0  0  0  0  0  0  0
  124.2188  120.7156   86.0263 H   0  0  0  0  0  0  0  0  0  0  0  0
  121.2519  122.5955   86.3274 H   0  0  0  0  0  0  0  0  0  0  0  0
  119.9306  122.8202   88.4230 H   0  0  0  0  0  0  0  0  0  0  0  0
  120.9290  122.1512   90.6116 H   0  0  0  0  0  0  0  0  0  0  0  0
  124.5726  121.0154   88.5881 H   0  0  0  0  0  0  0  0  0  0  0  0
  1  2  2  3
  2  3  1  0
  2  4  1  0
  4  5  2  3
  5  6  1  0
  5  7  1  0
  7  8  1  0
  8  9  2  0
  9 10  1  0
 10 11  2  0
 11 12  1  0
 12 13  1  0
 12 14  2  0
 14  8  1  0
  1 15  1  0
  3 16  1  0
  3 17  1  0
  6 18  1  0
  6 19  1  0
  7 20  1  0
  9 21  1  0
 10 22  1  0
 11 23  1  0
 14 24  1  0
M  END
>  <loss>  (13) 
0.6710324287414551

>  <score>  (13) 
2.955169677734375

$$$$
DIHXJZHAIHGSAW-UHFFFAOYSA-N
     RDKit          3D

 24 24  0  0  0  0  0  0  0  0999 V2000
  125.2740  125.5106   84.1826 N   0  0  0  0  0  0  0  0  0  0  0  0
  125.2282  124.2328   84.0098 C   0  0  0  0  0  0  0  0  0  0  0  0
  125.4004  123.6893   82.7861 N   0  0  0  0  0  0  0  0  0  0  0  0
  125.0564  123.3836   85.0513 N   0  0  0  0  0  0  0  0  0  0  0  0
  124.0644  122.5572   85.1186 C   0  0  0  0  0  0  0  0  0  0  0  0
  123.0794  122.4077   84.1802 N   0  0  0  0  0  0  0  0  0  0  0  0
  123.8320  121.6598   86.1287 N   0  0  0  0  0  0  0  0  0  0  0  0
  123.0588  121.8219   87.2940 C   0  0  0  0  0  0  0  0  0  0  0  0
  121.7396  122.2926   87.2855 C   0  0  0  0  0  0  0  0  0  0  0  0
  120.9988  122.4053   88.4675 C   0  0  0  0  0  0  0  0  0  0  0  0
  121.5651  122.0342   89.6834 C   0  0  0  0  0  0  0  0  0  0  0  0
  122.8667  121.5450   89.7071 C   0  0  0  0  0  0  0  0  0  0  0  0
  123.5720  121.0696   91.2040 Cl  0  0  0  0  0  0  0  0  0  0  0  0
  123.6057  121.4318   88.5273 C   0  0  0  0  0  0  0  0  0  0  0  0
  125.1405  125.9082   85.1234 H   0  0  0  0  0  0  0  0  0  0  0  0
  125.3607  122.6670   82.6664 H   0  0  0  0  0  0  0  0  0  0  0  0
  125.5713  124.2969   81.9721 H   0  0  0  0  0  0  0  0  0  0  0  0
  122.3285  121.7181   84.3271 H   0  0  0  0  0  0  0  0  0  0  0  0
  123.0890  122.9847   83.3271 H   0  0  0  0  0  0  0  0  0  0  0  0
  124.2851  120.7412   86.0201 H   0  0  0  0  0  0  0  0  0  0  0  0
  121.2762  122.5795   86.3300 H   0  0  0  0  0  0  0  0  0  0  0  0
  119.9679  122.7877   88.4355 H   0  0  0  0  0  0  0  0  0  0  0  0
  120.9892  122.1268   90.6160 H   0  0  0  0  0  0  0  0  0  0  0  0
  124.6298  121.0319   88.5646 H   0  0  0  0  0  0  0  0  0  0  0  0
  1  2  2  3
  2  3  1  0
  2  4  1  0
  4  5  2  3
  5  6  1  0
  5  7  1  0
  7  8  1  0
  8  9  2  0
  9 10  1  0
 10 11  2  0
 11 12  1  0
 12 13  1  0
 12 14  2  0
 14  8  1  0
  1 15  1  0
  3 16  1  0
  3 17  1  0
  6 18  1  0
  6 19  1  0
  7 20  1  0
  9 21  1  0
 10 22  1  0
 11 23  1  0
 14 24  1  0
M  END
>  <loss>  (14) 
0.6696705222129822

>  <score>  (14) 
2.920463800430298

$$$$
DIHXJZHAIHGSAW-UHFFFAOYSA-N
     RDKit          3D

 24 24  0  0  0  0  0  0  0  0999 V2000
  125.5419  125.3937   84.4449 N   0  0  0  0  0  0  0  0  0  0  0  0
  125.2775  124.1828   84.1132 C   0  0  0  0  0  0  0  0  0  0  0  0
  125.1950  123.8258   82.8140 N   0  0  0  0  0  0  0  0  0  0  0  0
  125.1361  123.2955   85.1187 N   0  0  0  0  0  0  0  0  0  0  0  0
  124.0825  122.5471   85.1612 C   0  0  0  0  0  0  0  0  0  0  0  0
  123.0472  122.5658   84.2649 N   0  0  0  0  0  0  0  0  0  0  0  0
  123.7998  121.6169   86.1275 N   0  0  0  0  0  0  0  0  0  0  0  0
  123.0793  121.7826   87.3283 C   0  0  0  0  0  0  0  0  0  0  0  0
  121.7653  122.2804   87.2576 C   0  0  0  0  0  0  0  0  0  0  0  0
  120.9800  122.4331   88.4044 C   0  0  0  0  0  0  0  0  0  0  0  0
  121.4916  122.0721   89.6467 C   0  0  0  0  0  0  0  0  0  0  0  0
  122.7807  121.5546   89.7307 C   0  0  0  0  0  0  0  0  0  0  0  0
  123.4072  121.0840   91.2645 Cl  0  0  0  0  0  0  0  0  0  0  0  0
  123.5656  121.4032   88.5846 C   0  0  0  0  0  0  0  0  0  0  0  0
  125.6022  125.6536   85.4397 H   0  0  0  0  0  0  0  0  0  0  0  0
  124.9821  122.8504   82.5605 H   0  0  0  0  0  0  0  0  0  0  0  0
  125.3449  124.5287   82.0762 H   0  0  0  0  0  0  0  0  0  0  0  0
  122.2488  121.9265   84.3869 H   0  0  0  0  0  0  0  0  0  0  0  0
  123.0669  123.2190   83.4688 H   0  0  0  0  0  0  0  0  0  0  0  0
  124.1625  120.6688   85.9529 H   0  0  0  0  0  0  0  0  0  0  0  0
  121.3465  122.5557   86.2784 H   0  0  0  0  0  0  0  0  0  0  0  0
  119.9602  122.8375   88.3244 H   0  0  0  0  0  0  0  0  0  0  0  0
  120.8825  122.1946   90.5545 H   0  0  0  0  0  0  0  0  0  0  0  0
  124.5776  120.9808   88.6708 H   0  0  0  0  0  0  0  0  0  0  0  0
  1  2  2  3
  2  3  1  0
  2  4  1  0
  4  5  2  3
  5  6  1  0
  5  7  1  0
  7  8  1  0
  8  9  2  0
  9 10  1  0
 10 11  2  0
 11 12  1  0
 12 13  1  0
 12 14  2  0
 14  8  1  0
  1 15  1  0
  3 16  1  0
  3 17  1  0
  6 18  1  0
  6 19  1  0
  7 20  1  0
  9 21  1  0
 10 22  1  0
 11 23  1  0
 14 24  1  0
M  END
>  <loss>  (15) 
0.6690945625305176

>  <score>  (15) 
2.9138476848602295

$$$$
DIHXJZHAIHGSAW-UHFFFAOYSA-N
     RDKit          3D

 24 24  0  0  0  0  0  0  0  0999 V2000
  126.3706  120.0597   91.5179 N   0  0  0  0  0  0  0  0  0  0  0  0
  126.1016  121.2394   91.0909 C   0  0  0  0  0  0  0  0  0  0  0  0
  126.2572  122.3145   91.8924 N   0  0  0  0  0  0  0  0  0  0  0  0
  125.7099  121.3424   89.8046 N   0  0  0  0  0  0  0  0  0  0  0  0
  124.6864  120.6668   89.3948 C   0  0  0  0  0  0  0  0  0  0  0  0
  123.9304  119.8157   90.1564 N   0  0  0  0  0  0  0  0  0  0  0  0
  124.1860  120.6614   88.1185 N   0  0  0  0  0  0  0  0  0  0  0  0
  123.3543  121.6083   87.4860 C   0  0  0  0  0  0  0  0  0  0  0  0
  122.0872  121.9716   87.9589 C   0  0  0  0  0  0  0  0  0  0  0  0
  121.2844  122.8849   87.2651 C   0  0  0  0  0  0  0  0  0  0  0  0
  121.7303  123.4393   86.0693 C   0  0  0  0  0  0  0  0  0  0  0  0
  122.9744  123.0699   85.5711 C   0  0  0  0  0  0  0  0  0  0  0  0
  123.5303  123.7350   84.0837 Cl  0  0  0  0  0  0  0  0  0  0  0  0
  123.7760  122.1593   86.2639 C   0  0  0  0  0  0  0  0  0  0  0  0
  126.2480  119.2470   90.8972 H   0  0  0  0  0  0  0  0  0  0  0  0
  126.0380  123.2567   91.5385 H   0  0  0  0  0  0  0  0  0  0  0  0
  126.5949  122.1927   92.8578 H   0  0  0  0  0  0  0  0  0  0  0  0
  123.1307  119.3210   89.7360 H   0  0  0  0  0  0  0  0  0  0  0  0
  124.1615  119.6703   91.1496 H   0  0  0  0  0  0  0  0  0  0  0  0
  124.4552  119.8524   87.5407 H   0  0  0  0  0  0  0  0  0  0  0  0
  121.7150  121.5302   88.8952 H   0  0  0  0  0  0  0  0  0  0  0  0
  120.2991  123.1647   87.6661 H   0  0  0  0  0  0  0  0  0  0  0  0
  121.1053  124.1620   85.5242 H   0  0  0  0  0  0  0  0  0  0  0  0
  124.7516  121.8694   85.8467 H   0  0  0  0  0  0  0  0  0  0  0  0
  1  2  2  3
  2  3  1  0
  2  4  1  0
  4  5  2  3
  5  6  1  0
  5  7  1  0
  7  8  1  0
  8  9  2  0
  9 10  1  0
 10 11  2  0
 11 12  1  0
 12 13  1  0
 12 14  2  0
 14  8  1  0
  1 15  1  0
  3 16  1  0
  3 17  1  0
  6 18  1  0
  6 19  1  0
  7 20  1  0
  9 21  1  0
 10 22  1  0
 11 23  1  0
 14 24  1  0
M  END
>  <loss>  (16) 
0.6466290354728699

>  <score>  (16) 
2.7997093200683594

$$$$
DIHXJZHAIHGSAW-UHFFFAOYSA-N
     RDKit          3D

 24 24  0  0  0  0  0  0  0  0999 V2000
  126.5714  120.1698   91.4534 N   0  0  0  0  0  0  0  0  0  0  0  0
  126.1432  121.3175   91.0719 C   0  0  0  0  0  0  0  0  0  0  0  0
  126.1514  122.3714   91.9155 N   0  0  0  0  0  0  0  0  0  0  0  0
  125.7394  121.4166   89.7890 N   0  0  0  0  0  0  0  0  0  0  0  0
  124.7389  120.7068   89.3799 C   0  0  0  0  0  0  0  0  0  0  0  0
  124.0200  119.8219   90.1391 N   0  0  0  0  0  0  0  0  0  0  0  0
  124.2306  120.6935   88.1069 N   0  0  0  0  0  0  0  0  0  0  0  0
  123.3748  121.6237   87.4818 C   0  0  0  0  0  0  0  0  0  0  0  0
  122.1056  121.9630   87.9668 C   0  0  0  0  0  0  0  0  0  0  0  0
  121.2786  122.8601   87.2802 C   0  0  0  0  0  0  0  0  0  0  0  0
  121.7022  123.4219   86.0797 C   0  0  0  0  0  0  0  0  0  0  0  0
  122.9482  123.0760   85.5697 C   0  0  0  0  0  0  0  0  0  0  0  0
  123.4767  123.7503   84.0765 Cl  0  0  0  0  0  0  0  0  0  0  0  0
  123.7738  122.1816   86.2553 C   0  0  0  0  0  0  0  0  0  0  0  0
  126.5602  119.3729   90.8009 H   0  0  0  0  0  0  0  0  0  0  0  0
  125.8052  123.2880   91.5978 H   0  0  0  0  0  0  0  0  0  0  0  0
  126.5040  122.2590   92.8767 H   0  0  0  0  0  0  0  0  0  0  0  0
  123.2365  119.3014   89.7196 H   0  0  0  0  0  0  0  0  0  0  0  0
  124.2631  119.6770   91.1294 H   0  0  0  0  0  0  0  0  0  0  0  0
  124.5134  119.8916   87.5255 H   0  0  0  0  0  0  0  0  0  0  0  0
  121.7510  121.5154   88.9070 H   0  0  0  0  0  0  0  0  0  0  0  0
  120.2921  123.1213   87.6906 H   0  0  0  0  0  0  0  0  0  0  0  0
  121.0581  124.1320   85.5403 H   0  0  0  0  0  0  0  0  0  0  0  0
  124.7507  121.9101   85.8288 H   0  0  0  0  0  0  0  0  0  0  0  0
  1  2  2  3
  2  3  1  0
  2  4  1  0
  4  5  2  3
  5  6  1  0
  5  7  1  0
  7  8  1  0
  8  9  2  0
  9 10  1  0
 10 11  2  0
 11 12  1  0
 12 13  1  0
 12 14  2  0
 14  8  1  0
  1 15  1  0
  3 16  1  0
  3 17  1  0
  6 18  1  0
  6 19  1  0
  7 20  1  0
  9 21  1  0
 10 22  1  0
 11 23  1  0
 14 24  1  0
M  END
>  <loss>  (17) 
0.6536073684692383

>  <score>  (17) 
2.8312623500823975

$$$$
DIHXJZHAIHGSAW-UHFFFAOYSA-N
     RDKit          3D

 24 24  0  0  0  0  0  0  0  0999 V2000
  124.5527  125.2292   83.8504 N   0  0  0  0  0  0  0  0  0  0  0  0
  124.1750  124.0024   83.8418 C   0  0  0  0  0  0  0  0  0  0  0  0
  124.0175  123.3447   82.6743 N   0  0  0  0  0  0  0  0  0  0  0  0
  123.9166  123.4549   85.0478 N   0  0  0  0  0  0  0  0  0  0  0  0
  124.5618  122.4068   85.4426 C   0  0  0  0  0  0  0  0  0  0  0  0
  125.5212  121.7383   84.7288 N   0  0  0  0  0  0  0  0  0  0  0  0
  124.3930  121.7616   86.6396 N   0  0  0  0  0  0  0  0  0  0  0  0
  123.3000  121.7928   87.5286 C   0  0  0  0  0  0  0  0  0  0  0  0
  121.9829  122.0636   87.1385 C   0  0  0  0  0  0  0  0  0  0  0  0
  120.9422  122.1202   88.0734 C   0  0  0  0  0  0  0  0  0  0  0  0
  121.2055  121.9215   89.4251 C   0  0  0  0  0  0  0  0  0  0  0  0
  122.5109  121.6744   89.8337 C   0  0  0  0  0  0  0  0  0  0  0  0
  122.8531  121.4413   91.5047 Cl  0  0  0  0  0  0  0  0  0  0  0  0
  123.5492  121.6176   88.9007 C   0  0  0  0  0  0  0  0  0  0  0  0
  124.6710  125.7254   84.7453 H   0  0  0  0  0  0  0  0  0  0  0  0
  123.7142  122.3603   82.6746 H   0  0  0  0  0  0  0  0  0  0  0  0
  124.2005  123.8269   81.7828 H   0  0  0  0  0  0  0  0  0  0  0  0
  125.9796  120.9091   85.1330 H   0  0  0  0  0  0  0  0  0  0  0  0
  125.7842  122.0648   83.7880 H   0  0  0  0  0  0  0  0  0  0  0  0
  125.1807  121.1663   86.9327 H   0  0  0  0  0  0  0  0  0  0  0  0
  121.7610  122.2356   86.0749 H   0  0  0  0  0  0  0  0  0  0  0  0
  119.9140  122.3223   87.7385 H   0  0  0  0  0  0  0  0  0  0  0  0
  120.3897  121.9594   90.1621 H   0  0  0  0  0  0  0  0  0  0  0  0
  124.5774  121.4329   89.2452 H   0  0  0  0  0  0  0  0  0  0  0  0
  1  2  2  3
  2  3  1  0
  2  4  1  0
  4  5  2  3
  5  6  1  0
  5  7  1  0
  7  8  1  0
  8  9  2  0
  9 10  1  0
 10 11  2  0
 11 12  1  0
 12 13  1  0
 12 14  2  0
 14  8  1  0
  1 15  1  0
  3 16  1  0
  3 17  1  0
  6 18  1  0
  6 19  1  0
  7 20  1  0
  9 21  1  0
 10 22  1  0
 11 23  1  0
 14 24  1  0
M  END
>  <loss>  (18) 
0.6876768469810486

>  <score>  (18) 
2.983252763748169

$$$$
DIHXJZHAIHGSAW-UHFFFAOYSA-N
     RDKit          3D

 24 24  0  0  0  0  0  0  0  0999 V2000
  126.3641  122.9887   83.7273 N   0  0  0  0  0  0  0  0  0  0  0  0
  125.4444  123.6679   84.3254 C   0  0  0  0  0  0  0  0  0  0  0  0
  125.2619  124.9783   84.0548 N   0  0  0  0  0  0  0  0  0  0  0  0
  124.6221  123.1042   85.2427 N   0  0  0  0  0  0  0  0  0  0  0  0
  123.4231  122.7073   84.9684 C   0  0  0  0  0  0  0  0  0  0  0  0
  122.7971  122.8187   83.7569 N   0  0  0  0  0  0  0  0  0  0  0  0
  122.5470  122.1318   85.8515 N   0  0  0  0  0  0  0  0  0  0  0  0
  122.7184  121.8709   87.2240 C   0  0  0  0  0  0  0  0  0  0  0  0
  123.8946  121.3382   87.7672 C   0  0  0  0  0  0  0  0  0  0  0  0
  124.0082  121.0695   89.1359 C   0  0  0  0  0  0  0  0  0  0  0  0
  122.9361  121.3205   89.9871 C   0  0  0  0  0  0  0  0  0  0  0  0
  121.7546  121.8319   89.4612 C   0  0  0  0  0  0  0  0  0  0  0  0
  120.4179  122.1347   90.5033 Cl  0  0  0  0  0  0  0  0  0  0  0  0
  121.6408  122.0992   88.0950 C   0  0  0  0  0  0  0  0  0  0  0  0
  126.4905  121.9899   83.9449 H   0  0  0  0  0  0  0  0  0  0  0  0
  124.5232  125.5065   84.5409 H   0  0  0  0  0  0  0  0  0  0  0  0
  125.8613  125.4495   83.3624 H   0  0  0  0  0  0  0  0  0  0  0  0
  121.8351  122.4694   83.6402 H   0  0  0  0  0  0  0  0  0  0  0  0
  123.2877  123.2518   82.9616 H   0  0  0  0  0  0  0  0  0  0  0  0
  121.6380  121.8516   85.4564 H   0  0  0  0  0  0  0  0  0  0  0  0
  124.7465  121.1267   87.1042 H   0  0  0  0  0  0  0  0  0  0  0  0
  124.9458  120.6596   89.5394 H   0  0  0  0  0  0  0  0  0  0  0  0
  123.0224  121.1165   91.0645 H   0  0  0  0  0  0  0  0  0  0  0  0
  120.6946  122.4937   87.6960 H   0  0  0  0  0  0  0  0  0  0  0  0
  1  2  2  3
  2  3  1  0
  2  4  1  0
  4  5  2  3
  5  6  1  0
  5  7  1  0
  7  8  1  0
  8  9  2  0
  9 10  1  0
 10 11  2  0
 11 12  1  0
 12 13  1  0
 12 14  2  0
 14  8  1  0
  1 15  1  0
  3 16  1  0
  3 17  1  0
  6 18  1  0
  6 19  1  0
  7 20  1  0
  9 21  1  0
 10 22  1  0
 11 23  1  0
 14 24  1  0
M  END
>  <loss>  (19) 
0.6670424342155457

>  <score>  (19) 
2.77189302444458

$$$$
DIHXJZHAIHGSAW-UHFFFAOYSA-N
     RDKit          3D

 24 24  0  0  0  0  0  0  0  0999 V2000
  126.4540  123.3379   83.6021 N   0  0  0  0  0  0  0  0  0  0  0  0
  125.4060  123.7532   84.2297 C   0  0  0  0  0  0  0  0  0  0  0  0
  124.9481  125.0122   84.0597 N   0  0  0  0  0  0  0  0  0  0  0  0
  124.7177  122.9530   85.0790 N   0  0  0  0  0  0  0  0  0  0  0  0
  123.4497  122.7288   84.9683 C   0  0  0  0  0  0  0  0  0  0  0  0
  122.6167  123.2714   84.0282 N   0  0  0  0  0  0  0  0  0  0  0  0
  122.7011  121.9316   85.7944 N   0  0  0  0  0  0  0  0  0  0  0  0
  122.7854  121.7793   87.1911 C   0  0  0  0  0  0  0  0  0  0  0  0
  123.9387  121.3353   87.8506 C   0  0  0  0  0  0  0  0  0  0  0  0
  123.9660  121.1727   89.2404 C   0  0  0  0  0  0  0  0  0  0  0  0
  122.8292  121.4426   89.9964 C   0  0  0  0  0  0  0  0  0  0  0  0
  121.6701  121.8665   89.3554 C   0  0  0  0  0  0  0  0  0  0  0  0
  120.2544  122.1915   90.2798 Cl  0  0  0  0  0  0  0  0  0  0  0  0
  121.6425  122.0278   87.9682 C   0  0  0  0  0  0  0  0  0  0  0  0
  126.7905  122.3747   83.7426 H   0  0  0  0  0  0  0  0  0  0  0  0
  124.1100  125.3284   84.5681 H   0  0  0  0  0  0  0  0  0  0  0  0
  125.4370  125.6563   83.4217 H   0  0  0  0  0  0  0  0  0  0  0  0
  121.6159  123.0278   84.0248 H   0  0  0  0  0  0  0  0  0  0  0  0
  122.9904  123.9235   83.3239 H   0  0  0  0  0  0  0  0  0  0  0  0
  121.9770  121.3659   85.3290 H   0  0  0  0  0  0  0  0  0  0  0  0
  124.8416  121.1098   87.2641 H   0  0  0  0  0  0  0  0  0  0  0  0
  124.8869  120.8312   89.7356 H   0  0  0  0  0  0  0  0  0  0  0  0
  122.8473  121.3220   91.0896 H   0  0  0  0  0  0  0  0  0  0  0  0
  120.7133  122.3539   87.4781 H   0  0  0  0  0  0  0  0  0  0  0  0
  1  2  2  3
  2  3  1  0
  2  4  1  0
  4  5  2  3
  5  6  1  0
  5  7  1  0
  7  8  1  0
  8  9  2  0
  9 10  1  0
 10 11  2  0
 11 12  1  0
 12 13  1  0
 12 14  2  0
 14  8  1  0
  1 15  1  0
  3 16  1  0
  3 17  1  0
  6 18  1  0
  6 19  1  0
  7 20  1  0
  9 21  1  0
 10 22  1  0
 11 23  1  0
 14 24  1  0
M  END
>  <loss>  (20) 
0.6619052290916443

>  <score>  (20) 
2.68634295463562

$$$$
DIHXJZHAIHGSAW-UHFFFAOYSA-N
     RDKit          3D

 24 24  0  0  0  0  0  0  0  0999 V2000
  127.9288  122.4529   90.0344 N   0  0  0  0  0  0  0  0  0  0  0  0
  127.1425  121.4405   90.0882 C   0  0  0  0  0  0  0  0  0  0  0  0
  127.4621  120.3574   90.8278 N   0  0  0  0  0  0  0  0  0  0  0  0
  125.9793  121.5393   89.4133 N   0  0  0  0  0  0  0  0  0  0  0  0
  125.7214  120.6972   88.4666 C   0  0  0  0  0  0  0  0  0  0  0  0
  126.5393  119.6804   88.0509 N   0  0  0  0  0  0  0  0  0  0  0  0
  124.5917  120.6870   87.6901 N   0  0  0  0  0  0  0  0  0  0  0  0
  123.4056  121.4331   87.8478 C   0  0  0  0  0  0  0  0  0  0  0  0
  123.0906  122.4028   86.8783 C   0  0  0  0  0  0  0  0  0  0  0  0
  121.9118  123.1513   86.9509 C   0  0  0  0  0  0  0  0  0  0  0  0
  121.0140  122.9297   87.9903 C   0  0  0  0  0  0  0  0  0  0  0  0
  121.2990  121.9565   88.9435 C   0  0  0  0  0  0  0  0  0  0  0  0
  120.1773  121.6632   90.2172 Cl  0  0  0  0  0  0  0  0  0  0  0  0
  122.4775  121.2094   88.8712 C   0  0  0  0  0  0  0  0  0  0  0  0
  127.6737  123.2734   89.4665 H   0  0  0  0  0  0  0  0  0  0  0  0
  126.8224  119.5508   90.8629 H   0  0  0  0  0  0  0  0  0  0  0  0
  128.3455  120.3375   91.3570 H   0  0  0  0  0  0  0  0  0  0  0  0
  126.2412  119.0604   87.2843 H   0  0  0  0  0  0  0  0  0  0  0  0
  127.4524  119.5357   88.5049 H   0  0  0  0  0  0  0  0  0  0  0  0
  124.6121  120.0481   86.8824 H   0  0  0  0  0  0  0  0  0  0  0  0
  123.7872  122.5760   86.0448 H   0  0  0  0  0  0  0  0  0  0  0  0
  121.6949  123.9135   86.1881 H   0  0  0  0  0  0  0  0  0  0  0  0
  120.0873  123.5183   88.0581 H   0  0  0  0  0  0  0  0  0  0  0  0
  122.6783  120.4363   89.6276 H   0  0  0  0  0  0  0  0  0  0  0  0
  1  2  2  3
  2  3  1  0
  2  4  1  0
  4  5  2  3
  5  6  1  0
  5  7  1  0
  7  8  1  0
  8  9  2  0
  9 10  1  0
 10 11  2  0
 11 12  1  0
 12 13  1  0
 12 14  2  0
 14  8  1  0
  1 15  1  0
  3 16  1  0
  3 17  1  0
  6 18  1  0
  6 19  1  0
  7 20  1  0
  9 21  1  0
 10 22  1  0
 11 23  1  0
 14 24  1  0
M  END
>  <loss>  (21) 
0.8291060328483582

>  <score>  (21) 
3.5167489051818848

$$$$
DIHXJZHAIHGSAW-UHFFFAOYSA-N
     RDKit          3D

 24 24  0  0  0  0  0  0  0  0999 V2000
  125.7672  124.8489   84.1715 N   0  0  0  0  0  0  0  0  0  0  0  0
  124.7340  124.1089   83.9484 C   0  0  0  0  0  0  0  0  0  0  0  0
  123.9659  124.3003   82.8543 N   0  0  0  0  0  0  0  0  0  0  0  0
  124.3746  123.1107   84.7909 N   0  0  0  0  0  0  0  0  0  0  0  0
  123.1440  122.8179   85.0563 C   0  0  0  0  0  0  0  0  0  0  0  0
  122.0412  123.4678   84.5732 N   0  0  0  0  0  0  0  0  0  0  0  0
  122.7199  121.8225   85.8976 N   0  0  0  0  0  0  0  0  0  0  0  0
  122.8659  121.7229   87.2939 C   0  0  0  0  0  0  0  0  0  0  0  0
  124.0730  121.3899   87.9218 C   0  0  0  0  0  0  0  0  0  0  0  0
  124.1626  121.2755   89.3137 C   0  0  0  0  0  0  0  0  0  0  0  0
  123.0361  121.4825   90.1043 C   0  0  0  0  0  0  0  0  0  0  0  0
  121.8254  121.7956   89.4958 C   0  0  0  0  0  0  0  0  0  0  0  0
  120.4229  122.0418   90.4635 Cl  0  0  0  0  0  0  0  0  0  0  0  0
  121.7357  121.9089   88.1065 C   0  0  0  0  0  0  0  0  0  0  0  0
  126.3428  124.6901   85.0108 H   0  0  0  0  0  0  0  0  0  0  0  0
  123.1444  123.7010   82.6905 H   0  0  0  0  0  0  0  0  0  0  0  0
  124.2017  125.0456   82.1836 H   0  0  0  0  0  0  0  0  0  0  0  0
  121.0985  123.1553   84.8463 H   0  0  0  0  0  0  0  0  0  0  0  0
  122.1536  124.2697   83.9366 H   0  0  0  0  0  0  0  0  0  0  0  0
  122.2265  121.0394   85.4457 H   0  0  0  0  0  0  0  0  0  0  0  0
  124.9689  121.2148   87.3082 H   0  0  0  0  0  0  0  0  0  0  0  0
  125.1243  121.0215   89.7833 H   0  0  0  0  0  0  0  0  0  0  0  0
  123.1027  121.3995   91.1991 H   0  0  0  0  0  0  0  0  0  0  0  0
  120.7671  122.1469   87.6427 H   0  0  0  0  0  0  0  0  0  0  0  0
  1  2  2  3
  2  3  1  0
  2  4  1  0
  4  5  2  3
  5  6  1  0
  5  7  1  0
  7  8  1  0
  8  9  2  0
  9 10  1  0
 10 11  2  0
 11 12  1  0
 12 13  1  0
 12 14  2  0
 14  8  1  0
  1 15  1  0
  3 16  1  0
  3 17  1  0
  6 18  1  0
  6 19  1  0
  7 20  1  0
  9 21  1  0
 10 22  1  0
 11 23  1  0
 14 24  1  0
M  END
>  <loss>  (22) 
0.6659814119338989

>  <score>  (22) 
2.566516160964966

$$$$
DIHXJZHAIHGSAW-UHFFFAOYSA-N
     RDKit          3D

 24 24  0  0  0  0  0  0  0  0999 V2000
  126.2092  122.0801   91.6143 N   0  0  0  0  0  0  0  0  0  0  0  0
  125.4799  121.1510   91.1132 C   0  0  0  0  0  0  0  0  0  0  0  0
  125.3049  119.9835   91.7680 N   0  0  0  0  0  0  0  0  0  0  0  0
  124.8718  121.4251   89.9411 N   0  0  0  0  0  0  0  0  0  0  0  0
  125.1801  120.7402   88.8886 C   0  0  0  0  0  0  0  0  0  0  0  0
  126.1025  119.7292   88.8317 N   0  0  0  0  0  0  0  0  0  0  0  0
  124.6573  120.9165   87.6337 N   0  0  0  0  0  0  0  0  0  0  0  0
  123.5862  121.7374   87.2245 C   0  0  0  0  0  0  0  0  0  0  0  0
  122.3421  121.7725   87.8664 C   0  0  0  0  0  0  0  0  0  0  0  0
  121.2979  122.5738   87.3893 C   0  0  0  0  0  0  0  0  0  0  0  0
  121.4755  123.3438   86.2440 C   0  0  0  0  0  0  0  0  0  0  0  0
  122.6953  123.3009   85.5786 C   0  0  0  0  0  0  0  0  0  0  0  0
  122.9221  124.2351   84.1505 Cl  0  0  0  0  0  0  0  0  0  0  0  0
  123.7376  122.5021   86.0553 C   0  0  0  0  0  0  0  0  0  0  0  0
  126.3354  122.9667   91.1055 H   0  0  0  0  0  0  0  0  0  0  0  0
  124.7171  119.2449   91.3558 H   0  0  0  0  0  0  0  0  0  0  0  0
  125.7591  119.8313   92.6799 H   0  0  0  0  0  0  0  0  0  0  0  0
  126.2779  119.2416   87.9416 H   0  0  0  0  0  0  0  0  0  0  0  0
  126.6206  119.4565   89.6791 H   0  0  0  0  0  0  0  0  0  0  0  0
  125.1102  120.3734   86.8848 H   0  0  0  0  0  0  0  0  0  0  0  0
  122.1819  121.1577   88.7644 H   0  0  0  0  0  0  0  0  0  0  0  0
  120.3351  122.5946   87.9208 H   0  0  0  0  0  0  0  0  0  0  0  0
  120.6597  123.9795   85.8693 H   0  0  0  0  0  0  0  0  0  0  0  0
  124.6908  122.4714   85.5073 H   0  0  0  0  0  0  0  0  0  0  0  0
  1  2  2  3
  2  3  1  0
  2  4  1  0
  4  5  2  3
  5  6  1  0
  5  7  1  0
  7  8  1  0
  8  9  2  0
  9 10  1  0
 10 11  2  0
 11 12  1  0
 12 13  1  0
 12 14  2  0
 14  8  1  0
  1 15  1  0
  3 16  1  0
  3 17  1  0
  6 18  1  0
  6 19  1  0
  7 20  1  0
  9 21  1  0
 10 22  1  0
 11 23  1  0
 14 24  1  0
M  END
>  <loss>  (23) 
0.714017391204834

>  <score>  (23) 
2.7969117164611816

$$$$
DIHXJZHAIHGSAW-UHFFFAOYSA-N
     RDKit          3D

 24 24  0  0  0  0  0  0  0  0999 V2000
  125.5543  123.9323   83.1613 N   0  0  0  0  0  0  0  0  0  0  0  0
  124.6580  124.1708   84.0582 C   0  0  0  0  0  0  0  0  0  0  0  0
  124.0796  125.3873   84.1557 N   0  0  0  0  0  0  0  0  0  0  0  0
  124.2541  123.2206   84.9353 N   0  0  0  0  0  0  0  0  0  0  0  0
  123.0237  122.8424   85.0513 C   0  0  0  0  0  0  0  0  0  0  0  0
  121.9589  123.3465   84.3555 N   0  0  0  0  0  0  0  0  0  0  0  0
  122.5560  121.8892   85.9180 N   0  0  0  0  0  0  0  0  0  0  0  0
  122.8102  121.7447   87.2947 C   0  0  0  0  0  0  0  0  0  0  0  0
  124.0632  121.3972   87.8157 C   0  0  0  0  0  0  0  0  0  0  0  0
  124.2610  121.2376   89.1919 C   0  0  0  0  0  0  0  0  0  0  0  0
  123.1989  121.4132   90.0739 C   0  0  0  0  0  0  0  0  0  0  0  0
  121.9439  121.7401   89.5719 C   0  0  0  0  0  0  0  0  0  0  0  0
  120.6202  121.9478   90.6531 Cl  0  0  0  0  0  0  0  0  0  0  0  0
  121.7462  121.8984   88.1982 C   0  0  0  0  0  0  0  0  0  0  0  0
  125.9859  122.9991   83.1000 H   0  0  0  0  0  0  0  0  0  0  0  0
  123.3656  125.5617   84.8772 H   0  0  0  0  0  0  0  0  0  0  0  0
  124.3526  126.1406   83.5085 H   0  0  0  0  0  0  0  0  0  0  0  0
  121.0127  122.9752   84.5217 H   0  0  0  0  0  0  0  0  0  0  0  0
  122.1036  124.0973   83.6654 H   0  0  0  0  0  0  0  0  0  0  0  0
  121.9325  121.1810   85.5048 H   0  0  0  0  0  0  0  0  0  0  0  0
  124.9092  121.2466   87.1290 H   0  0  0  0  0  0  0  0  0  0  0  0
  125.2569  120.9732   89.5769 H   0  0  0  0  0  0  0  0  0  0  0  0
  123.3506  121.2947   91.1570 H   0  0  0  0  0  0  0  0  0  0  0  0
  120.7439  122.1468   87.8192 H   0  0  0  0  0  0  0  0  0  0  0  0
  1  2  2  3
  2  3  1  0
  2  4  1  0
  4  5  2  3
  5  6  1  0
  5  7  1  0
  7  8  1  0
  8  9  2  0
  9 10  1  0
 10 11  2  0
 11 12  1  0
 12 13  1  0
 12 14  2  0
 14  8  1  0
  1 15  1  0
  3 16  1  0
  3 17  1  0
  6 18  1  0
  6 19  1  0
  7 20  1  0
  9 21  1  0
 10 22  1  0
 11 23  1  0
 14 24  1  0
M  END
>  <loss>  (24) 
0.6657819151878357

>  <score>  (24) 
2.5481512546539307

$$$$
DIHXJZHAIHGSAW-UHFFFAOYSA-N
     RDKit          3D

 24 24  0  0  0  0  0  0  0  0999 V2000
  126.7279  120.4502   91.5740 N   0  0  0  0  0  0  0  0  0  0  0  0
  125.7710  121.2441   91.2578 C   0  0  0  0  0  0  0  0  0  0  0  0
  125.1761  122.0136   92.1940 N   0  0  0  0  0  0  0  0  0  0  0  0
  125.4361  121.2982   89.9526 N   0  0  0  0  0  0  0  0  0  0  0  0
  124.3718  120.6889   89.5426 C   0  0  0  0  0  0  0  0  0  0  0  0
  123.5165  119.9567   90.3226 N   0  0  0  0  0  0  0  0  0  0  0  0
  123.9189  120.6452   88.2495 N   0  0  0  0  0  0  0  0  0  0  0  0
  123.2078  121.6228   87.5235 C   0  0  0  0  0  0  0  0  0  0  0  0
  121.9278  122.0731   87.8701 C   0  0  0  0  0  0  0  0  0  0  0  0
  121.2489  123.0138   87.0864 C   0  0  0  0  0  0  0  0  0  0  0  0
  121.8345  123.5089   85.9254 C   0  0  0  0  0  0  0  0  0  0  0  0
  123.0935  123.0532   85.5516 C   0  0  0  0  0  0  0  0  0  0  0  0
  123.8217  123.6445   84.1080 Cl  0  0  0  0  0  0  0  0  0  0  0  0
  123.7715  122.1153   86.3341 C   0  0  0  0  0  0  0  0  0  0  0  0
  127.1742  119.8679   90.8511 H   0  0  0  0  0  0  0  0  0  0  0  0
  124.4087  122.6472   91.9282 H   0  0  0  0  0  0  0  0  0  0  0  0
  125.4895  121.9671   93.1741 H   0  0  0  0  0  0  0  0  0  0  0  0
  122.6915  119.5072   89.9003 H   0  0  0  0  0  0  0  0  0  0  0  0
  123.6982  119.8557   91.3314 H   0  0  0  0  0  0  0  0  0  0  0  0
  124.1271  119.7768   87.7364 H   0  0  0  0  0  0  0  0  0  0  0  0
  121.4458  121.6795   88.7772 H   0  0  0  0  0  0  0  0  0  0  0  0
  120.2504  123.3621   87.3891 H   0  0  0  0  0  0  0  0  0  0  0  0
  121.3071  124.2527   85.3101 H   0  0  0  0  0  0  0  0  0  0  0  0
  124.7612  121.7570   86.0146 H   0  0  0  0  0  0  0  0  0  0  0  0
  1  2  2  3
  2  3  1  0
  2  4  1  0
  4  5  2  3
  5  6  1  0
  5  7  1  0
  7  8  1  0
  8  9  2  0
  9 10  1  0
 10 11  2  0
 11 12  1  0
 12 13  1  0
 12 14  2  0
 14  8  1  0
  1 15  1  0
  3 16  1  0
  3 17  1  0
  6 18  1  0
  6 19  1  0
  7 20  1  0
  9 21  1  0
 10 22  1  0
 11 23  1  0
 14 24  1  0
M  END
>  <loss>  (25) 
0.6997842788696289

>  <score>  (25) 
2.6298556327819824

$$$$
