DLPOBEBPDQGZKH-UHFFFAOYSA-N
     RDKit          3D

 32 32  0  0  0  0  0  0  0  0999 V2000
  125.0857  123.9875   81.7226 C   0  0  0  0  0  0  0  0  0  0  0  0
  125.5624  124.0748   83.1628 C   0  0  0  0  0  0  0  0  0  0  0  0
  126.2587  122.7888   83.5997 C   0  0  0  0  0  0  0  0  0  0  0  0
  126.2060  122.6156   85.0386 N   0  0  0  0  0  0  0  0  0  0  0  0
  125.4768  121.5934   85.6121 C   0  0  0  0  0  0  0  0  0  0  0  0
  124.9197  120.7169   84.9557 O   0  0  0  0  0  0  0  0  0  0  0  0
  125.3204  121.6213   87.1000 C   0  0  0  0  0  0  0  0  0  0  0  0
  126.4431  121.4192   87.9220 C   0  0  0  0  0  0  0  0  0  0  0  0
  126.3189  121.4743   89.3088 C   0  0  0  0  0  0  0  0  0  0  0  0
  125.0763  121.7231   89.8811 C   0  0  0  0  0  0  0  0  0  0  0  0
  123.9479  121.9009   89.0740 C   0  0  0  0  0  0  0  0  0  0  0  0
  124.0457  121.8416   87.6794 C   0  0  0  0  0  0  0  0  0  0  0  0
  122.9191  121.9812   86.8305 N   0  0  0  0  0  0  0  0  0  0  0  0
  121.5966  122.2800   87.1560 C   0  0  0  0  0  0  0  0  0  0  0  0
  121.1120  122.0989   88.2741 O   0  0  0  0  0  0  0  0  0  0  0  0
  120.7801  122.8662   85.9717 C   0  0  0  0  0  0  0  0  0  0  0  0
  119.0844  123.1507   86.4415 Cl  0  0  0  0  0  0  0  0  0  0  0  0
  120.8330  121.7052   84.6163 Cl  0  0  0  0  0  0  0  0  0  0  0  0
  121.5165  124.4173   85.4719 Cl  0  0  0  0  0  0  0  0  0  0  0  0
  124.0038  123.7893   81.7059 H   0  0  0  0  0  0  0  0  0  0  0  0
  125.2922  124.9384   81.2097 H   0  0  0  0  0  0  0  0  0  0  0  0
  125.6159  123.1715   81.2097 H   0  0  0  0  0  0  0  0  0  0  0  0
  126.2686  124.9131   83.2554 H   0  0  0  0  0  0  0  0  0  0  0  0
  124.6852  124.2291   83.8083 H   0  0  0  0  0  0  0  0  0  0  0  0
  125.7625  121.9331   83.1187 H   0  0  0  0  0  0  0  0  0  0  0  0
  127.3150  122.8503   83.2990 H   0  0  0  0  0  0  0  0  0  0  0  0
  126.7231  123.2683   85.6447 H   0  0  0  0  0  0  0  0  0  0  0  0
  127.4243  121.2166   87.4680 H   0  0  0  0  0  0  0  0  0  0  0  0
  127.2007  121.3216   89.9484 H   0  0  0  0  0  0  0  0  0  0  0  0
  124.9801  121.7803   90.9754 H   0  0  0  0  0  0  0  0  0  0  0  0
  122.9705  122.0900   89.5419 H   0  0  0  0  0  0  0  0  0  0  0  0
  123.1044  121.8415   85.8270 H   0  0  0  0  0  0  0  0  0  0  0  0
  1  2  1  0
  2  3  1  0
  3  4  1  0
  4  5  1  0
  5  6  2  0
  5  7  1  0
  7  8  2  0
  8  9  1  0
  9 10  2  0
 10 11  1  0
 11 12  2  0
 12 13  1  0
 13 14  1  0
 14 15  2  0
 14 16  1  0
 16 17  1  0
 16 18  1  0
 16 19  1  0
 12  7  1  0
  1 20  1  0
  1 21  1  0
  1 22  1  0
  2 23  1  0
  2 24  1  0
  3 25  1  0
  3 26  1  0
  4 27  1  0
  8 28  1  0
  9 29  1  0
 10 30  1  0
 11 31  1  0
 13 32  1  0
M  END
>  <loss>  (1) 
0.44382408261299133

>  <score>  (1) 
5.893110752105713

$$$$
DLPOBEBPDQGZKH-UHFFFAOYSA-N
     RDKit          3D

 32 32  0  0  0  0  0  0  0  0999 V2000
  124.8676  123.8699   81.6954 C   0  0  0  0  0  0  0  0  0  0  0  0
  125.5246  124.0581   83.0554 C   0  0  0  0  0  0  0  0  0  0  0  0
  126.2232  122.7947   83.5470 C   0  0  0  0  0  0  0  0  0  0  0  0
  126.1766  122.6718   84.9914 N   0  0  0  0  0  0  0  0  0  0  0  0
  125.4767  121.6387   85.5838 C   0  0  0  0  0  0  0  0  0  0  0  0
  125.0308  120.6829   84.9539 O   0  0  0  0  0  0  0  0  0  0  0  0
  125.3293  121.6861   87.0731 C   0  0  0  0  0  0  0  0  0  0  0  0
  126.4735  121.6049   87.8869 C   0  0  0  0  0  0  0  0  0  0  0  0
  126.3529  121.6166   89.2750 C   0  0  0  0  0  0  0  0  0  0  0  0
  125.0942  121.7172   89.8572 C   0  0  0  0  0  0  0  0  0  0  0  0
  123.9513  121.8243   89.0582 C   0  0  0  0  0  0  0  0  0  0  0  0
  124.0474  121.8233   87.6621 C   0  0  0  0  0  0  0  0  0  0  0  0
  122.9151  121.9673   86.8214 N   0  0  0  0  0  0  0  0  0  0  0  0
  121.5984  122.2825   87.1557 C   0  0  0  0  0  0  0  0  0  0  0  0
  121.1113  122.0823   88.2694 O   0  0  0  0  0  0  0  0  0  0  0  0
  120.7915  122.9127   85.9875 C   0  0  0  0  0  0  0  0  0  0  0  0
  121.1543  124.6598   85.9225 Cl  0  0  0  0  0  0  0  0  0  0  0  0
  119.0397  122.6813   86.2208 Cl  0  0  0  0  0  0  0  0  0  0  0  0
  121.2864  122.1320   84.4570 Cl  0  0  0  0  0  0  0  0  0  0  0  0
  123.8185  123.5694   81.8335 H   0  0  0  0  0  0  0  0  0  0  0  0
  124.9074  124.8156   81.1350 H   0  0  0  0  0  0  0  0  0  0  0  0
  125.4020  123.0887   81.1350 H   0  0  0  0  0  0  0  0  0  0  0  0
  126.2680  124.8652   82.9792 H   0  0  0  0  0  0  0  0  0  0  0  0
  124.7324  124.3043   83.7778 H   0  0  0  0  0  0  0  0  0  0  0  0
  125.7287  121.9194   83.1005 H   0  0  0  0  0  0  0  0  0  0  0  0
  127.2797  122.8532   83.2462 H   0  0  0  0  0  0  0  0  0  0  0  0
  126.6687  123.3595   85.5794 H   0  0  0  0  0  0  0  0  0  0  0  0
  127.4691  121.5317   87.4250 H   0  0  0  0  0  0  0  0  0  0  0  0
  127.2499  121.5465   89.9078 H   0  0  0  0  0  0  0  0  0  0  0  0
  124.9968  121.7126   90.9529 H   0  0  0  0  0  0  0  0  0  0  0  0
  122.9632  121.9105   89.5338 H   0  0  0  0  0  0  0  0  0  0  0  0
  123.0904  121.8173   85.8175 H   0  0  0  0  0  0  0  0  0  0  0  0
  1  2  1  0
  2  3  1  0
  3  4  1  0
  4  5  1  0
  5  6  2  0
  5  7  1  0
  7  8  2  0
  8  9  1  0
  9 10  2  0
 10 11  1  0
 11 12  2  0
 12 13  1  0
 13 14  1  0
 14 15  2  0
 14 16  1  0
 16 17  1  0
 16 18  1  0
 16 19  1  0
 12  7  1  0
  1 20  1  0
  1 21  1  0
  1 22  1  0
  2 23  1  0
  2 24  1  0
  3 25  1  0
  3 26  1  0
  4 27  1  0
  8 28  1  0
  9 29  1  0
 10 30  1  0
 11 31  1  0
 13 32  1  0
M  END
>  <loss>  (2) 
0.44440945982933044

>  <score>  (2) 
5.841083526611328

$$$$
DLPOBEBPDQGZKH-UHFFFAOYSA-N
     RDKit          3D

 32 32  0  0  0  0  0  0  0  0999 V2000
  124.8955  123.8456   81.6928 C   0  0  0  0  0  0  0  0  0  0  0  0
  125.5117  124.0737   83.0630 C   0  0  0  0  0  0  0  0  0  0  0  0
  126.2383  122.8282   83.5630 C   0  0  0  0  0  0  0  0  0  0  0  0
  126.1455  122.6985   85.0045 N   0  0  0  0  0  0  0  0  0  0  0  0
  125.4775  121.6410   85.5884 C   0  0  0  0  0  0  0  0  0  0  0  0
  124.9639  120.7323   84.9404 O   0  0  0  0  0  0  0  0  0  0  0  0
  125.3314  121.6676   87.0774 C   0  0  0  0  0  0  0  0  0  0  0  0
  126.4664  121.5060   87.8913 C   0  0  0  0  0  0  0  0  0  0  0  0
  126.3508  121.5606   89.2789 C   0  0  0  0  0  0  0  0  0  0  0  0
  125.1047  121.7685   89.8600 C   0  0  0  0  0  0  0  0  0  0  0  0
  123.9650  121.9056   89.0610 C   0  0  0  0  0  0  0  0  0  0  0  0
  124.0543  121.8459   87.6659 C   0  0  0  0  0  0  0  0  0  0  0  0
  122.9173  121.9448   86.8252 N   0  0  0  0  0  0  0  0  0  0  0  0
  121.6004  122.2674   87.1509 C   0  0  0  0  0  0  0  0  0  0  0  0
  121.1078  122.0792   88.2643 O   0  0  0  0  0  0  0  0  0  0  0  0
  120.8013  122.8901   85.9733 C   0  0  0  0  0  0  0  0  0  0  0  0
  121.1682  124.6381   85.8846 Cl  0  0  0  0  0  0  0  0  0  0  0  0
  119.0473  122.6737   86.2044 Cl  0  0  0  0  0  0  0  0  0  0  0  0
  121.3035  122.0875   84.4596 Cl  0  0  0  0  0  0  0  0  0  0  0  0
  123.8698  123.4660   81.8106 H   0  0  0  0  0  0  0  0  0  0  0  0
  124.8735  124.7952   81.1380 H   0  0  0  0  0  0  0  0  0  0  0  0
  125.4971  123.1106   81.1380 H   0  0  0  0  0  0  0  0  0  0  0  0
  126.2294  124.9047   82.9984 H   0  0  0  0  0  0  0  0  0  0  0  0
  124.7030  124.3093   83.7705 H   0  0  0  0  0  0  0  0  0  0  0  0
  125.7883  121.9403   83.0950 H   0  0  0  0  0  0  0  0  0  0  0  0
  127.3010  122.9184   83.2935 H   0  0  0  0  0  0  0  0  0  0  0  0
  126.5868  123.4099   85.6046 H   0  0  0  0  0  0  0  0  0  0  0  0
  127.4506  121.3357   87.4304 H   0  0  0  0  0  0  0  0  0  0  0  0
  127.2420  121.4397   89.9122 H   0  0  0  0  0  0  0  0  0  0  0  0
  125.0148  121.8254   90.9548 H   0  0  0  0  0  0  0  0  0  0  0  0
  122.9852  122.0626   89.5358 H   0  0  0  0  0  0  0  0  0  0  0  0
  123.0888  121.7500   85.8284 H   0  0  0  0  0  0  0  0  0  0  0  0
  1  2  1  0
  2  3  1  0
  3  4  1  0
  4  5  1  0
  5  6  2  0
  5  7  1  0
  7  8  2  0
  8  9  1  0
  9 10  2  0
 10 11  1  0
 11 12  2  0
 12 13  1  0
 13 14  1  0
 14 15  2  0
 14 16  1  0
 16 17  1  0
 16 18  1  0
 16 19  1  0
 12  7  1  0
  1 20  1  0
  1 21  1  0
  1 22  1  0
  2 23  1  0
  2 24  1  0
  3 25  1  0
  3 26  1  0
  4 27  1  0
  8 28  1  0
  9 29  1  0
 10 30  1  0
 11 31  1  0
 13 32  1  0
M  END
>  <loss>  (3) 
0.44384023547172546

>  <score>  (3) 
5.80277681350708

$$$$
DLPOBEBPDQGZKH-UHFFFAOYSA-N
     RDKit          3D

 32 32  0  0  0  0  0  0  0  0999 V2000
  124.9710  123.9029   81.6580 C   0  0  0  0  0  0  0  0  0  0  0  0
  125.4889  124.0705   83.0767 C   0  0  0  0  0  0  0  0  0  0  0  0
  126.2295  122.8235   83.5520 C   0  0  0  0  0  0  0  0  0  0  0  0
  126.1648  122.6811   84.9938 N   0  0  0  0  0  0  0  0  0  0  0  0
  125.4856  121.6331   85.5817 C   0  0  0  0  0  0  0  0  0  0  0  0
  124.9620  120.7275   84.9372 O   0  0  0  0  0  0  0  0  0  0  0  0
  125.3401  121.6667   87.0706 C   0  0  0  0  0  0  0  0  0  0  0  0
  126.4770  121.5199   87.8847 C   0  0  0  0  0  0  0  0  0  0  0  0
  126.3618  121.5813   89.2720 C   0  0  0  0  0  0  0  0  0  0  0  0
  125.1142  121.7813   89.8528 C   0  0  0  0  0  0  0  0  0  0  0  0
  123.9728  121.9037   89.0538 C   0  0  0  0  0  0  0  0  0  0  0  0
  124.0618  121.8369   87.6589 C   0  0  0  0  0  0  0  0  0  0  0  0
  122.9234  121.9209   86.8184 N   0  0  0  0  0  0  0  0  0  0  0  0
  121.6075  122.2510   87.1401 C   0  0  0  0  0  0  0  0  0  0  0  0
  121.1320  122.1333   88.2705 O   0  0  0  0  0  0  0  0  0  0  0  0
  120.7858  122.7843   85.9346 C   0  0  0  0  0  0  0  0  0  0  0  0
  121.3975  124.4043   85.4879 Cl  0  0  0  0  0  0  0  0  0  0  0  0
  119.0552  122.9071   86.3433 Cl  0  0  0  0  0  0  0  0  0  0  0  0
  120.9930  121.6588   84.5642 Cl  0  0  0  0  0  0  0  0  0  0  0  0
  123.9248  123.5645   81.6872 H   0  0  0  0  0  0  0  0  0  0  0  0
  125.0302  124.8661   81.1299 H   0  0  0  0  0  0  0  0  0  0  0  0
  125.5831  123.1570   81.1299 H   0  0  0  0  0  0  0  0  0  0  0  0
  126.1767  124.9283   83.1073 H   0  0  0  0  0  0  0  0  0  0  0  0
  124.6281  124.2354   83.7415 H   0  0  0  0  0  0  0  0  0  0  0  0
  125.7737  121.9379   83.0850 H   0  0  0  0  0  0  0  0  0  0  0  0
  127.2864  122.9199   83.2628 H   0  0  0  0  0  0  0  0  0  0  0  0
  126.6351  123.3761   85.5911 H   0  0  0  0  0  0  0  0  0  0  0  0
  127.4624  121.3559   87.4242 H   0  0  0  0  0  0  0  0  0  0  0  0
  127.2544  121.4719   89.9054 H   0  0  0  0  0  0  0  0  0  0  0  0
  125.0245  121.8435   90.9473 H   0  0  0  0  0  0  0  0  0  0  0  0
  122.9919  122.0545   89.5283 H   0  0  0  0  0  0  0  0  0  0  0  0
  123.0931  121.7069   85.8253 H   0  0  0  0  0  0  0  0  0  0  0  0
  1  2  1  0
  2  3  1  0
  3  4  1  0
  4  5  1  0
  5  6  2  0
  5  7  1  0
  7  8  2  0
  8  9  1  0
  9 10  2  0
 10 11  1  0
 11 12  2  0
 12 13  1  0
 13 14  1  0
 14 15  2  0
 14 16  1  0
 16 17  1  0
 16 18  1  0
 16 19  1  0
 12  7  1  0
  1 20  1  0
  1 21  1  0
  1 22  1  0
  2 23  1  0
  2 24  1  0
  3 25  1  0
  3 26  1  0
  4 27  1  0
  8 28  1  0
  9 29  1  0
 10 30  1  0
 11 31  1  0
 13 32  1  0
M  END
>  <loss>  (4) 
0.4446130096912384

>  <score>  (4) 
5.797314643859863

$$$$
DLPOBEBPDQGZKH-UHFFFAOYSA-N
     RDKit          3D

 32 32  0  0  0  0  0  0  0  0999 V2000
  125.0601  123.8942   81.6372 C   0  0  0  0  0  0  0  0  0  0  0  0
  125.4860  124.0511   83.0874 C   0  0  0  0  0  0  0  0  0  0  0  0
  126.2677  122.8342   83.5749 C   0  0  0  0  0  0  0  0  0  0  0  0
  126.1803  122.6853   85.0148 N   0  0  0  0  0  0  0  0  0  0  0  0
  125.4718  121.6481   85.5873 C   0  0  0  0  0  0  0  0  0  0  0  0
  124.9251  120.7660   84.9297 O   0  0  0  0  0  0  0  0  0  0  0  0
  125.3246  121.6654   87.0763 C   0  0  0  0  0  0  0  0  0  0  0  0
  126.4647  121.5444   87.8901 C   0  0  0  0  0  0  0  0  0  0  0  0
  126.3469  121.5911   89.2778 C   0  0  0  0  0  0  0  0  0  0  0  0
  125.0938  121.7507   89.8591 C   0  0  0  0  0  0  0  0  0  0  0  0
  123.9498  121.8471   89.0602 C   0  0  0  0  0  0  0  0  0  0  0  0
  124.0416  121.7943   87.6649 C   0  0  0  0  0  0  0  0  0  0  0  0
  122.9018  121.8527   86.8242 N   0  0  0  0  0  0  0  0  0  0  0  0
  121.6171  122.3164   87.1049 C   0  0  0  0  0  0  0  0  0  0  0  0
  121.0965  122.2496   88.2194 O   0  0  0  0  0  0  0  0  0  0  0  0
  120.8929  122.9297   85.8751 C   0  0  0  0  0  0  0  0  0  0  0  0
  119.1453  123.1012   86.1807 Cl  0  0  0  0  0  0  0  0  0  0  0  0
  121.5885  124.5422   85.5379 Cl  0  0  0  0  0  0  0  0  0  0  0  0
  121.1468  121.8544   84.4726 Cl  0  0  0  0  0  0  0  0  0  0  0  0
  124.0287  123.5141   81.5970 H   0  0  0  0  0  0  0  0  0  0  0  0
  125.1112  124.8702   81.1324 H   0  0  0  0  0  0  0  0  0  0  0  0
  125.7323  123.1847   81.1324 H   0  0  0  0  0  0  0  0  0  0  0  0
  126.1214  124.9444   83.1788 H   0  0  0  0  0  0  0  0  0  0  0  0
  124.5808  124.1501   83.7045 H   0  0  0  0  0  0  0  0  0  0  0  0
  125.8581  121.9320   83.0971 H   0  0  0  0  0  0  0  0  0  0  0  0
  127.3253  122.9748   83.3071 H   0  0  0  0  0  0  0  0  0  0  0  0
  126.6564  123.3671   85.6225 H   0  0  0  0  0  0  0  0  0  0  0  0
  127.4546  121.4123   87.4291 H   0  0  0  0  0  0  0  0  0  0  0  0
  127.2419  121.5020   89.9111 H   0  0  0  0  0  0  0  0  0  0  0  0
  125.0016  121.8014   90.9541 H   0  0  0  0  0  0  0  0  0  0  0  0
  122.9648  121.9660   89.5351 H   0  0  0  0  0  0  0  0  0  0  0  0
  123.0432  121.5013   85.8664 H   0  0  0  0  0  0  0  0  0  0  0  0
  1  2  1  0
  2  3  1  0
  3  4  1  0
  4  5  1  0
  5  6  2  0
  5  7  1  0
  7  8  2  0
  8  9  1  0
  9 10  2  0
 10 11  1  0
 11 12  2  0
 12 13  1  0
 13 14  1  0
 14 15  2  0
 14 16  1  0
 16 17  1  0
 16 18  1  0
 16 19  1  0
 12  7  1  0
  1 20  1  0
  1 21  1  0
  1 22  1  0
  2 23  1  0
  2 24  1  0
  3 25  1  0
  3 26  1  0
  4 27  1  0
  8 28  1  0
  9 29  1  0
 10 30  1  0
 11 31  1  0
 13 32  1  0
M  END
>  <loss>  (5) 
0.4383567273616791

>  <score>  (5) 
5.733838081359863

$$$$
DLPOBEBPDQGZKH-UHFFFAOYSA-N
     RDKit          3D

 32 32  0  0  0  0  0  0  0  0999 V2000
  124.9418  123.8535   81.6577 C   0  0  0  0  0  0  0  0  0  0  0  0
  125.4784  124.0599   83.0643 C   0  0  0  0  0  0  0  0  0  0  0  0
  126.2290  122.8278   83.5622 C   0  0  0  0  0  0  0  0  0  0  0  0
  126.1422  122.6962   85.0039 N   0  0  0  0  0  0  0  0  0  0  0  0
  125.4781  121.6370   85.5891 C   0  0  0  0  0  0  0  0  0  0  0  0
  124.9683  120.7253   84.9423 O   0  0  0  0  0  0  0  0  0  0  0  0
  125.3311  121.6654   87.0780 C   0  0  0  0  0  0  0  0  0  0  0  0
  126.4678  121.5203   87.8927 C   0  0  0  0  0  0  0  0  0  0  0  0
  126.3511  121.5768   89.2801 C   0  0  0  0  0  0  0  0  0  0  0  0
  125.1022  121.7703   89.8603 C   0  0  0  0  0  0  0  0  0  0  0  0
  123.9611  121.8910   89.0607 C   0  0  0  0  0  0  0  0  0  0  0  0
  124.0517  121.8289   87.6657 C   0  0  0  0  0  0  0  0  0  0  0  0
  122.9137  121.9113   86.8244 N   0  0  0  0  0  0  0  0  0  0  0  0
  121.6030  122.2673   87.1399 C   0  0  0  0  0  0  0  0  0  0  0  0
  121.1323  122.1973   88.2762 O   0  0  0  0  0  0  0  0  0  0  0  0
  120.7806  122.7639   85.9192 C   0  0  0  0  0  0  0  0  0  0  0  0
  119.0527  122.9144   86.3296 Cl  0  0  0  0  0  0  0  0  0  0  0  0
  121.4027  124.3622   85.4131 Cl  0  0  0  0  0  0  0  0  0  0  0  0
  120.9740  121.5889   84.5889 Cl  0  0  0  0  0  0  0  0  0  0  0  0
  123.9164  123.4589   81.7106 H   0  0  0  0  0  0  0  0  0  0  0  0
  124.9379  124.8143   81.1221 H   0  0  0  0  0  0  0  0  0  0  0  0
  125.5829  123.1377   81.1221 H   0  0  0  0  0  0  0  0  0  0  0  0
  126.1640  124.9200   83.0628 H   0  0  0  0  0  0  0  0  0  0  0  0
  124.6262  124.2400   83.7361 H   0  0  0  0  0  0  0  0  0  0  0  0
  125.7942  121.9319   83.0952 H   0  0  0  0  0  0  0  0  0  0  0  0
  127.2892  122.9375   83.2900 H   0  0  0  0  0  0  0  0  0  0  0  0
  126.5850  123.4074   85.6031 H   0  0  0  0  0  0  0  0  0  0  0  0
  127.4542  121.3614   87.4325 H   0  0  0  0  0  0  0  0  0  0  0  0
  127.2435  121.4688   89.9140 H   0  0  0  0  0  0  0  0  0  0  0  0
  125.0113  121.8287   90.9550 H   0  0  0  0  0  0  0  0  0  0  0  0
  122.9792  122.0366   89.5347 H   0  0  0  0  0  0  0  0  0  0  0  0
  123.0792  121.6736   85.8360 H   0  0  0  0  0  0  0  0  0  0  0  0
  1  2  1  0
  2  3  1  0
  3  4  1  0
  4  5  1  0
  5  6  2  0
  5  7  1  0
  7  8  2  0
  8  9  1  0
  9 10  2  0
 10 11  1  0
 11 12  2  0
 12 13  1  0
 13 14  1  0
 14 15  2  0
 14 16  1  0
 16 17  1  0
 16 18  1  0
 16 19  1  0
 12  7  1  0
  1 20  1  0
  1 21  1  0
  1 22  1  0
  2 23  1  0
  2 24  1  0
  3 25  1  0
  3 26  1  0
  4 27  1  0
  8 28  1  0
  9 29  1  0
 10 30  1  0
 11 31  1  0
 13 32  1  0
M  END
>  <loss>  (6) 
0.44470471143722534

>  <score>  (6) 
5.753735065460205

$$$$
DLPOBEBPDQGZKH-UHFFFAOYSA-N
     RDKit          3D

 32 32  0  0  0  0  0  0  0  0999 V2000
  124.9871  123.8657   81.6606 C   0  0  0  0  0  0  0  0  0  0  0  0
  125.4948  124.0567   83.0801 C   0  0  0  0  0  0  0  0  0  0  0  0
  126.2594  122.8300   83.5697 C   0  0  0  0  0  0  0  0  0  0  0  0
  126.1703  122.6851   85.0099 N   0  0  0  0  0  0  0  0  0  0  0  0
  125.4690  121.6443   85.5845 C   0  0  0  0  0  0  0  0  0  0  0  0
  124.9235  120.7603   84.9284 O   0  0  0  0  0  0  0  0  0  0  0  0
  125.3277  121.6597   87.0741 C   0  0  0  0  0  0  0  0  0  0  0  0
  126.4715  121.5416   87.8832 C   0  0  0  0  0  0  0  0  0  0  0  0
  126.3593  121.5866   89.2713 C   0  0  0  0  0  0  0  0  0  0  0  0
  125.1081  121.7416   89.8580 C   0  0  0  0  0  0  0  0  0  0  0  0
  123.9606  121.8351   89.0638 C   0  0  0  0  0  0  0  0  0  0  0  0
  124.0468  121.7839   87.6681 C   0  0  0  0  0  0  0  0  0  0  0  0
  122.9033  121.8394   86.8321 N   0  0  0  0  0  0  0  0  0  0  0  0
  121.6211  122.3082   87.1154 C   0  0  0  0  0  0  0  0  0  0  0  0
  121.1029  122.2443   88.2312 O   0  0  0  0  0  0  0  0  0  0  0  0
  120.8963  122.9232   85.8868 C   0  0  0  0  0  0  0  0  0  0  0  0
  119.1663  123.1834   86.2278 Cl  0  0  0  0  0  0  0  0  0  0  0  0
  121.0668  121.8021   84.5077 Cl  0  0  0  0  0  0  0  0  0  0  0  0
  121.6569  124.4926   85.4913 Cl  0  0  0  0  0  0  0  0  0  0  0  0
  123.9579  123.4784   81.6883 H   0  0  0  0  0  0  0  0  0  0  0  0
  125.0016  124.8308   81.1330 H   0  0  0  0  0  0  0  0  0  0  0  0
  125.6343  123.1496   81.1330 H   0  0  0  0  0  0  0  0  0  0  0  0
  126.1642  124.9292   83.1060 H   0  0  0  0  0  0  0  0  0  0  0  0
  124.6276  124.2092   83.7395 H   0  0  0  0  0  0  0  0  0  0  0  0
  125.8370  121.9327   83.0939 H   0  0  0  0  0  0  0  0  0  0  0  0
  127.3188  122.9552   83.3014 H   0  0  0  0  0  0  0  0  0  0  0  0
  126.6399  123.3727   85.6163 H   0  0  0  0  0  0  0  0  0  0  0  0
  127.4600  121.4130   87.4179 H   0  0  0  0  0  0  0  0  0  0  0  0
  127.2572  121.4998   89.9008 H   0  0  0  0  0  0  0  0  0  0  0  0
  125.0203  121.7910   90.9533 H   0  0  0  0  0  0  0  0  0  0  0  0
  122.9771  121.9504   89.5429 H   0  0  0  0  0  0  0  0  0  0  0  0
  123.0396  121.4812   85.8761 H   0  0  0  0  0  0  0  0  0  0  0  0
  1  2  1  0
  2  3  1  0
  3  4  1  0
  4  5  1  0
  5  6  2  0
  5  7  1  0
  7  8  2  0
  8  9  1  0
  9 10  2  0
 10 11  1  0
 11 12  2  0
 12 13  1  0
 13 14  1  0
 14 15  2  0
 14 16  1  0
 16 17  1  0
 16 18  1  0
 16 19  1  0
 12  7  1  0
  1 20  1  0
  1 21  1  0
  1 22  1  0
  2 23  1  0
  2 24  1  0
  3 25  1  0
  3 26  1  0
  4 27  1  0
  8 28  1  0
  9 29  1  0
 10 30  1  0
 11 31  1  0
 13 32  1  0
M  END
>  <loss>  (7) 
0.4381828010082245

>  <score>  (7) 
5.718744277954102

$$$$
DLPOBEBPDQGZKH-UHFFFAOYSA-N
     RDKit          3D

 32 32  0  0  0  0  0  0  0  0999 V2000
  125.5153  124.8537   82.3255 C   0  0  0  0  0  0  0  0  0  0  0  0
  125.2539  123.4164   82.7522 C   0  0  0  0  0  0  0  0  0  0  0  0
  126.3811  122.8459   83.6066 C   0  0  0  0  0  0  0  0  0  0  0  0
  126.0407  122.8247   85.0163 N   0  0  0  0  0  0  0  0  0  0  0  0
  125.4894  121.6937   85.5864 C   0  0  0  0  0  0  0  0  0  0  0  0
  125.0882  120.7379   84.9270 O   0  0  0  0  0  0  0  0  0  0  0  0
  125.3297  121.6939   87.0752 C   0  0  0  0  0  0  0  0  0  0  0  0
  126.4642  121.5577   87.8951 C   0  0  0  0  0  0  0  0  0  0  0  0
  126.3383  121.5864   89.2824 C   0  0  0  0  0  0  0  0  0  0  0  0
  125.0823  121.7426   89.8579 C   0  0  0  0  0  0  0  0  0  0  0  0
  123.9437  121.8533   89.0531 C   0  0  0  0  0  0  0  0  0  0  0  0
  124.0436  121.8188   87.6576 C   0  0  0  0  0  0  0  0  0  0  0  0
  122.9084  121.8908   86.8116 N   0  0  0  0  0  0  0  0  0  0  0  0
  121.6010  122.2698   87.1145 C   0  0  0  0  0  0  0  0  0  0  0  0
  121.1213  122.2174   88.2480 O   0  0  0  0  0  0  0  0  0  0  0  0
  120.7955  122.7708   85.8844 C   0  0  0  0  0  0  0  0  0  0  0  0
  121.4434  124.3583   85.3776 Cl  0  0  0  0  0  0  0  0  0  0  0  0
  120.9839  121.5878   84.5604 Cl  0  0  0  0  0  0  0  0  0  0  0  0
  119.0661  122.9454   86.2790 Cl  0  0  0  0  0  0  0  0  0  0  0  0
  125.6303  125.4861   83.2182 H   0  0  0  0  0  0  0  0  0  0  0  0
  126.4359  124.8963   81.7249 H   0  0  0  0  0  0  0  0  0  0  0  0
  124.6686  125.2177   81.7249 H   0  0  0  0  0  0  0  0  0  0  0  0
  124.3205  123.3852   83.3334 H   0  0  0  0  0  0  0  0  0  0  0  0
  125.1837  122.8049   81.8405 H   0  0  0  0  0  0  0  0  0  0  0  0
  126.5905  121.8176   83.2769 H   0  0  0  0  0  0  0  0  0  0  0  0
  127.2619  123.4928   83.4808 H   0  0  0  0  0  0  0  0  0  0  0  0
  126.2111  123.6587   85.5962 H   0  0  0  0  0  0  0  0  0  0  0  0
  127.4566  121.4278   87.4385 H   0  0  0  0  0  0  0  0  0  0  0  0
  127.2291  121.4859   89.9199 H   0  0  0  0  0  0  0  0  0  0  0  0
  124.9834  121.7794   90.9528 H   0  0  0  0  0  0  0  0  0  0  0  0
  122.9561  121.9691   89.5235 H   0  0  0  0  0  0  0  0  0  0  0  0
  123.0732  121.6244   85.8304 H   0  0  0  0  0  0  0  0  0  0  0  0
  1  2  1  0
  2  3  1  0
  3  4  1  0
  4  5  1  0
  5  6  2  0
  5  7  1  0
  7  8  2  0
  8  9  1  0
  9 10  2  0
 10 11  1  0
 11 12  2  0
 12 13  1  0
 13 14  1  0
 14 15  2  0
 14 16  1  0
 16 17  1  0
 16 18  1  0
 16 19  1  0
 12  7  1  0
  1 20  1  0
  1 21  1  0
  1 22  1  0
  2 23  1  0
  2 24  1  0
  3 25  1  0
  3 26  1  0
  4 27  1  0
  8 28  1  0
  9 29  1  0
 10 30  1  0
 11 31  1  0
 13 32  1  0
M  END
>  <loss>  (8) 
0.44131094217300415

>  <score>  (8) 
5.712576389312744

$$$$
DLPOBEBPDQGZKH-UHFFFAOYSA-N
     RDKit          3D

 32 32  0  0  0  0  0  0  0  0999 V2000
  124.8674  123.8797   81.6724 C   0  0  0  0  0  0  0  0  0  0  0  0
  125.5072  124.0678   83.0405 C   0  0  0  0  0  0  0  0  0  0  0  0
  126.1996  122.8044   83.5410 C   0  0  0  0  0  0  0  0  0  0  0  0
  126.1491  122.6899   84.9859 N   0  0  0  0  0  0  0  0  0  0  0  0
  125.4708  121.6446   85.5820 C   0  0  0  0  0  0  0  0  0  0  0  0
  125.0353  120.6828   84.9539 O   0  0  0  0  0  0  0  0  0  0  0  0
  125.3346  121.6871   87.0725 C   0  0  0  0  0  0  0  0  0  0  0  0
  126.4877  121.6429   87.8766 C   0  0  0  0  0  0  0  0  0  0  0  0
  126.3786  121.6506   89.2656 C   0  0  0  0  0  0  0  0  0  0  0  0
  125.1224  121.7104   89.8585 C   0  0  0  0  0  0  0  0  0  0  0  0
  123.9698  121.7805   89.0693 C   0  0  0  0  0  0  0  0  0  0  0  0
  124.0539  121.7827   87.6724 C   0  0  0  0  0  0  0  0  0  0  0  0
  122.9105  121.8900   86.8414 N   0  0  0  0  0  0  0  0  0  0  0  0
  121.6118  122.2790   87.1683 C   0  0  0  0  0  0  0  0  0  0  0  0
  121.1577  122.2450   88.3130 O   0  0  0  0  0  0  0  0  0  0  0  0
  120.7793  122.7619   85.9490 C   0  0  0  0  0  0  0  0  0  0  0  0
  121.3940  124.3579   85.4362 Cl  0  0  0  0  0  0  0  0  0  0  0  0
  119.0521  122.9004   86.3669 Cl  0  0  0  0  0  0  0  0  0  0  0  0
  120.9668  121.5823   84.6185 Cl  0  0  0  0  0  0  0  0  0  0  0  0
  123.8190  123.5713   81.7973 H   0  0  0  0  0  0  0  0  0  0  0  0
  124.9071  124.8275   81.1156 H   0  0  0  0  0  0  0  0  0  0  0  0
  125.4139  123.1042   81.1156 H   0  0  0  0  0  0  0  0  0  0  0  0
  126.2515  124.8750   82.9738 H   0  0  0  0  0  0  0  0  0  0  0  0
  124.7060  124.3140   83.7529 H   0  0  0  0  0  0  0  0  0  0  0  0
  125.7026  121.9286   83.0983 H   0  0  0  0  0  0  0  0  0  0  0  0
  127.2570  122.8570   83.2423 H   0  0  0  0  0  0  0  0  0  0  0  0
  126.6223  123.3928   85.5715 H   0  0  0  0  0  0  0  0  0  0  0  0
  127.4812  121.6021   87.4062 H   0  0  0  0  0  0  0  0  0  0  0  0
  127.2828  121.6096   89.8907 H   0  0  0  0  0  0  0  0  0  0  0  0
  125.0345  121.7025   90.9550 H   0  0  0  0  0  0  0  0  0  0  0  0
  122.9835  121.8346   89.5534 H   0  0  0  0  0  0  0  0  0  0  0  0
  123.0607  121.6450   85.8523 H   0  0  0  0  0  0  0  0  0  0  0  0
  1  2  1  0
  2  3  1  0
  3  4  1  0
  4  5  1  0
  5  6  2  0
  5  7  1  0
  7  8  2  0
  8  9  1  0
  9 10  2  0
 10 11  1  0
 11 12  2  0
 12 13  1  0
 13 14  1  0
 14 15  2  0
 14 16  1  0
 16 17  1  0
 16 18  1  0
 16 19  1  0
 12  7  1  0
  1 20  1  0
  1 21  1  0
  1 22  1  0
  2 23  1  0
  2 24  1  0
  3 25  1  0
  3 26  1  0
  4 27  1  0
  8 28  1  0
  9 29  1  0
 10 30  1  0
 11 31  1  0
 13 32  1  0
M  END
>  <loss>  (9) 
0.4456203281879425

>  <score>  (9) 
5.7211103439331055

$$$$
DLPOBEBPDQGZKH-UHFFFAOYSA-N
     RDKit          3D

 32 32  0  0  0  0  0  0  0  0999 V2000
  125.5642  124.8750   82.3111 C   0  0  0  0  0  0  0  0  0  0  0  0
  125.2517  123.4670   82.7972 C   0  0  0  0  0  0  0  0  0  0  0  0
  126.3884  122.8658   83.6173 C   0  0  0  0  0  0  0  0  0  0  0  0
  126.0786  122.8269   85.0336 N   0  0  0  0  0  0  0  0  0  0  0  0
  125.4718  121.7163   85.5872 C   0  0  0  0  0  0  0  0  0  0  0  0
  125.0198  120.7934   84.9139 O   0  0  0  0  0  0  0  0  0  0  0  0
  125.3171  121.6998   87.0765 C   0  0  0  0  0  0  0  0  0  0  0  0
  126.4573  121.5833   87.8916 C   0  0  0  0  0  0  0  0  0  0  0  0
  126.3354  121.5970   89.2795 C   0  0  0  0  0  0  0  0  0  0  0  0
  125.0779  121.7187   89.8603 C   0  0  0  0  0  0  0  0  0  0  0  0
  123.9344  121.8096   89.0601 C   0  0  0  0  0  0  0  0  0  0  0  0
  124.0304  121.7895   87.6641 C   0  0  0  0  0  0  0  0  0  0  0  0
  122.8910  121.8421   86.8223 N   0  0  0  0  0  0  0  0  0  0  0  0
  121.5994  122.2842   87.1070 C   0  0  0  0  0  0  0  0  0  0  0  0
  121.0894  122.2233   88.2268 O   0  0  0  0  0  0  0  0  0  0  0  0
  120.8538  122.8680   85.8756 C   0  0  0  0  0  0  0  0  0  0  0  0
  121.0647  124.6434   85.8615 Cl  0  0  0  0  0  0  0  0  0  0  0  0
  121.5592  122.1613   84.3954 Cl  0  0  0  0  0  0  0  0  0  0  0  0
  119.1137  122.4875   85.9407 Cl  0  0  0  0  0  0  0  0  0  0  0  0
  125.7113  125.5375   83.1768 H   0  0  0  0  0  0  0  0  0  0  0  0
  126.4804  124.8579   81.7027 H   0  0  0  0  0  0  0  0  0  0  0  0
  124.7268  125.2472   81.7027 H   0  0  0  0  0  0  0  0  0  0  0  0
  124.3467  123.5022   83.4215 H   0  0  0  0  0  0  0  0  0  0  0  0
  125.1074  122.8320   81.9106 H   0  0  0  0  0  0  0  0  0  0  0  0
  126.5745  121.8399   83.2667 H   0  0  0  0  0  0  0  0  0  0  0  0
  127.2761  123.5012   83.4823 H   0  0  0  0  0  0  0  0  0  0  0  0
  126.3126  123.6328   85.6307 H   0  0  0  0  0  0  0  0  0  0  0  0
  127.4508  121.4807   87.4308 H   0  0  0  0  0  0  0  0  0  0  0  0
  127.2304  121.5119   89.9133 H   0  0  0  0  0  0  0  0  0  0  0  0
  124.9819  121.7436   90.9558 H   0  0  0  0  0  0  0  0  0  0  0  0
  122.9460  121.8980   89.5346 H   0  0  0  0  0  0  0  0  0  0  0  0
  123.0385  121.5046   85.8604 H   0  0  0  0  0  0  0  0  0  0  0  0
  1  2  1  0
  2  3  1  0
  3  4  1  0
  4  5  1  0
  5  6  2  0
  5  7  1  0
  7  8  2  0
  8  9  1  0
  9 10  2  0
 10 11  1  0
 11 12  2  0
 12 13  1  0
 13 14  1  0
 14 15  2  0
 14 16  1  0
 16 17  1  0
 16 18  1  0
 16 19  1  0
 12  7  1  0
  1 20  1  0
  1 21  1  0
  1 22  1  0
  2 23  1  0
  2 24  1  0
  3 25  1  0
  3 26  1  0
  4 27  1  0
  8 28  1  0
  9 29  1  0
 10 30  1  0
 11 31  1  0
 13 32  1  0
M  END
>  <loss>  (10) 
0.4398847222328186

>  <score>  (10) 
5.685894966125488

$$$$
DLPOBEBPDQGZKH-UHFFFAOYSA-N
     RDKit          3D

 32 32  0  0  0  0  0  0  0  0999 V2000
  125.5159  124.8164   82.2805 C   0  0  0  0  0  0  0  0  0  0  0  0
  125.2570  123.3905   82.7456 C   0  0  0  0  0  0  0  0  0  0  0  0
  126.3724  122.8548   83.6372 C   0  0  0  0  0  0  0  0  0  0  0  0
  125.9922  122.8377   85.0367 N   0  0  0  0  0  0  0  0  0  0  0  0
  125.4510  121.6991   85.6013 C   0  0  0  0  0  0  0  0  0  0  0  0
  125.0476  120.7478   84.9368 O   0  0  0  0  0  0  0  0  0  0  0  0
  125.3053  121.6847   87.0915 C   0  0  0  0  0  0  0  0  0  0  0  0
  126.4532  121.6084   87.9005 C   0  0  0  0  0  0  0  0  0  0  0  0
  126.3387  121.6247   89.2891 C   0  0  0  0  0  0  0  0  0  0  0  0
  125.0813  121.7089   89.8765 C   0  0  0  0  0  0  0  0  0  0  0  0
  123.9310  121.7596   89.0825 C   0  0  0  0  0  0  0  0  0  0  0  0
  124.0197  121.7360   87.6860 C   0  0  0  0  0  0  0  0  0  0  0  0
  122.8745  121.7483   86.8506 N   0  0  0  0  0  0  0  0  0  0  0  0
  121.6345  122.3521   87.0568 C   0  0  0  0  0  0  0  0  0  0  0  0
  121.0997  122.4506   88.1622 O   0  0  0  0  0  0  0  0  0  0  0  0
  120.9815  122.8967   85.7568 C   0  0  0  0  0  0  0  0  0  0  0  0
  122.2718  123.4641   84.6567 Cl  0  0  0  0  0  0  0  0  0  0  0  0
  120.0630  121.5749   84.9841 Cl  0  0  0  0  0  0  0  0  0  0  0  0
  119.8801  124.2523   86.1124 Cl  0  0  0  0  0  0  0  0  0  0  0  0
  125.6348  125.4717   83.1560 H   0  0  0  0  0  0  0  0  0  0  0  0
  126.4336  124.8436   81.6747 H   0  0  0  0  0  0  0  0  0  0  0  0
  124.6662  125.1644   81.6747 H   0  0  0  0  0  0  0  0  0  0  0  0
  124.3133  123.3696   83.3104 H   0  0  0  0  0  0  0  0  0  0  0  0
  125.2080  122.7514   81.8517 H   0  0  0  0  0  0  0  0  0  0  0  0
  126.6155  121.8289   83.3233 H   0  0  0  0  0  0  0  0  0  0  0  0
  127.2408  123.5214   83.5305 H   0  0  0  0  0  0  0  0  0  0  0  0
  126.1265  123.6804   85.6135 H   0  0  0  0  0  0  0  0  0  0  0  0
  127.4469  121.5354   87.4345 H   0  0  0  0  0  0  0  0  0  0  0  0
  127.2395  121.5712   89.9180 H   0  0  0  0  0  0  0  0  0  0  0  0
  124.9906  121.7359   90.9724 H   0  0  0  0  0  0  0  0  0  0  0  0
  122.9429  121.8187   89.5623 H   0  0  0  0  0  0  0  0  0  0  0  0
  122.9726  121.2368   85.9619 H   0  0  0  0  0  0  0  0  0  0  0  0
  1  2  1  0
  2  3  1  0
  3  4  1  0
  4  5  1  0
  5  6  2  0
  5  7  1  0
  7  8  2  0
  8  9  1  0
  9 10  2  0
 10 11  1  0
 11 12  2  0
 12 13  1  0
 13 14  1  0
 14 15  2  0
 14 16  1  0
 16 17  1  0
 16 18  1  0
 16 19  1  0
 12  7  1  0
  1 20  1  0
  1 21  1  0
  1 22  1  0
  2 23  1  0
  2 24  1  0
  3 25  1  0
  3 26  1  0
  4 27  1  0
  8 28  1  0
  9 29  1  0
 10 30  1  0
 11 31  1  0
 13 32  1  0
M  END
>  <loss>  (11) 
0.4371032118797302

>  <score>  (11) 
5.662405014038086

$$$$
DLPOBEBPDQGZKH-UHFFFAOYSA-N
     RDKit          3D

 32 32  0  0  0  0  0  0  0  0999 V2000
  124.8626  123.8654   81.6666 C   0  0  0  0  0  0  0  0  0  0  0  0
  125.4869  124.0606   83.0409 C   0  0  0  0  0  0  0  0  0  0  0  0
  126.1984  122.8085   83.5430 C   0  0  0  0  0  0  0  0  0  0  0  0
  126.1449  122.6923   84.9876 N   0  0  0  0  0  0  0  0  0  0  0  0
  125.4716  121.6421   85.5810 C   0  0  0  0  0  0  0  0  0  0  0  0
  125.0397  120.6805   84.9502 O   0  0  0  0  0  0  0  0  0  0  0  0
  125.3367  121.6791   87.0718 C   0  0  0  0  0  0  0  0  0  0  0  0
  126.4922  121.6899   87.8734 C   0  0  0  0  0  0  0  0  0  0  0  0
  126.3858  121.6934   89.2627 C   0  0  0  0  0  0  0  0  0  0  0  0
  125.1294  121.6942   89.8582 C   0  0  0  0  0  0  0  0  0  0  0  0
  123.9732  121.7093   89.0714 C   0  0  0  0  0  0  0  0  0  0  0  0
  124.0542  121.7146   87.6743 C   0  0  0  0  0  0  0  0  0  0  0  0
  122.9052  121.7673   86.8457 N   0  0  0  0  0  0  0  0  0  0  0  0
  121.6532  122.3251   87.1026 C   0  0  0  0  0  0  0  0  0  0  0  0
  121.1824  122.4517   88.2340 O   0  0  0  0  0  0  0  0  0  0  0  0
  120.8962  122.7756   85.8231 C   0  0  0  0  0  0  0  0  0  0  0  0
  121.9361  123.9080   84.9153 Cl  0  0  0  0  0  0  0  0  0  0  0  0
  119.3627  123.5842   86.2373 Cl  0  0  0  0  0  0  0  0  0  0  0  0
  120.5469  121.3358   84.8221 Cl  0  0  0  0  0  0  0  0  0  0  0  0
  123.8184  123.5390   81.7813 H   0  0  0  0  0  0  0  0  0  0  0  0
  124.8910  124.8153   81.1127 H   0  0  0  0  0  0  0  0  0  0  0  0
  125.4270  123.1008   81.1127 H   0  0  0  0  0  0  0  0  0  0  0  0
  126.2167  124.8817   82.9832 H   0  0  0  0  0  0  0  0  0  0  0  0
  124.6752  124.2893   83.7471 H   0  0  0  0  0  0  0  0  0  0  0  0
  125.7175  121.9249   83.0981 H   0  0  0  0  0  0  0  0  0  0  0  0
  127.2558  122.8787   83.2480 H   0  0  0  0  0  0  0  0  0  0  0  0
  126.6120  123.3976   85.5752 H   0  0  0  0  0  0  0  0  0  0  0  0
  127.4856  121.6957   87.4009 H   0  0  0  0  0  0  0  0  0  0  0  0
  127.2923  121.6955   89.8859 H   0  0  0  0  0  0  0  0  0  0  0  0
  125.0443  121.6829   90.9549 H   0  0  0  0  0  0  0  0  0  0  0  0
  122.9864  121.7172   89.5575 H   0  0  0  0  0  0  0  0  0  0  0  0
  123.0104  121.3299   85.9191 H   0  0  0  0  0  0  0  0  0  0  0  0
  1  2  1  0
  2  3  1  0
  3  4  1  0
  4  5  1  0
  5  6  2  0
  5  7  1  0
  7  8  2  0
  8  9  1  0
  9 10  2  0
 10 11  1  0
 11 12  2  0
 12 13  1  0
 13 14  1  0
 14 15  2  0
 14 16  1  0
 16 17  1  0
 16 18  1  0
 16 19  1  0
 12  7  1  0
  1 20  1  0
  1 21  1  0
  1 22  1  0
  2 23  1  0
  2 24  1  0
  3 25  1  0
  3 26  1  0
  4 27  1  0
  8 28  1  0
  9 29  1  0
 10 30  1  0
 11 31  1  0
 13 32  1  0
M  END
>  <loss>  (12) 
0.43807265162467957

>  <score>  (12) 
5.611942291259766

$$$$
DLPOBEBPDQGZKH-UHFFFAOYSA-N
     RDKit          3D

 32 32  0  0  0  0  0  0  0  0999 V2000
  124.9433  123.8612   81.6562 C   0  0  0  0  0  0  0  0  0  0  0  0
  125.4826  124.0754   83.0606 C   0  0  0  0  0  0  0  0  0  0  0  0
  126.2107  122.8363   83.5744 C   0  0  0  0  0  0  0  0  0  0  0  0
  126.1035  122.7132   85.0154 N   0  0  0  0  0  0  0  0  0  0  0  0
  125.4581  121.6412   85.5981 C   0  0  0  0  0  0  0  0  0  0  0  0
  124.9554  120.7274   84.9487 O   0  0  0  0  0  0  0  0  0  0  0  0
  125.3224  121.6570   87.0882 C   0  0  0  0  0  0  0  0  0  0  0  0
  126.4736  121.5930   87.8929 C   0  0  0  0  0  0  0  0  0  0  0  0
  126.3652  121.6392   89.2813 C   0  0  0  0  0  0  0  0  0  0  0  0
  125.1107  121.7416   89.8726 C   0  0  0  0  0  0  0  0  0  0  0  0
  123.9570  121.7810   89.0830 C   0  0  0  0  0  0  0  0  0  0  0  0
  124.0396  121.7274   87.6871 C   0  0  0  0  0  0  0  0  0  0  0  0
  122.8915  121.7288   86.8558 N   0  0  0  0  0  0  0  0  0  0  0  0
  121.6449  122.3163   87.0683 C   0  0  0  0  0  0  0  0  0  0  0  0
  121.1527  122.4860   88.1849 O   0  0  0  0  0  0  0  0  0  0  0  0
  120.9242  122.7409   85.7594 C   0  0  0  0  0  0  0  0  0  0  0  0
  119.4559  123.6868   86.1146 Cl  0  0  0  0  0  0  0  0  0  0  0  0
  122.0402  123.7387   84.7812 Cl  0  0  0  0  0  0  0  0  0  0  0  0
  120.4765  121.2682   84.8548 Cl  0  0  0  0  0  0  0  0  0  0  0  0
  123.9223  123.4558   81.7133 H   0  0  0  0  0  0  0  0  0  0  0  0
  124.9271  124.8211   81.1193 H   0  0  0  0  0  0  0  0  0  0  0  0
  125.5900  123.1517   81.1193 H   0  0  0  0  0  0  0  0  0  0  0  0
  126.1837  124.9229   83.0490 H   0  0  0  0  0  0  0  0  0  0  0  0
  124.6334  124.2792   83.7294 H   0  0  0  0  0  0  0  0  0  0  0  0
  125.7703  121.9436   83.1061 H   0  0  0  0  0  0  0  0  0  0  0  0
  127.2756  122.9308   83.3154 H   0  0  0  0  0  0  0  0  0  0  0  0
  126.5173  123.4404   85.6161 H   0  0  0  0  0  0  0  0  0  0  0  0
  127.4648  121.5060   87.4240 H   0  0  0  0  0  0  0  0  0  0  0  0
  127.2685  121.5948   89.9073 H   0  0  0  0  0  0  0  0  0  0  0  0
  125.0253  121.7920   90.9681 H   0  0  0  0  0  0  0  0  0  0  0  0
  122.9713  121.8551   89.5657 H   0  0  0  0  0  0  0  0  0  0  0  0
  122.9928  121.2220   85.9649 H   0  0  0  0  0  0  0  0  0  0  0  0
  1  2  1  0
  2  3  1  0
  3  4  1  0
  4  5  1  0
  5  6  2  0
  5  7  1  0
  7  8  2  0
  8  9  1  0
  9 10  2  0
 10 11  1  0
 11 12  2  0
 12 13  1  0
 13 14  1  0
 14 15  2  0
 14 16  1  0
 16 17  1  0
 16 18  1  0
 16 19  1  0
 12  7  1  0
  1 20  1  0
  1 21  1  0
  1 22  1  0
  2 23  1  0
  2 24  1  0
  3 25  1  0
  3 26  1  0
  4 27  1  0
  8 28  1  0
  9 29  1  0
 10 30  1  0
 11 31  1  0
 13 32  1  0
M  END
>  <loss>  (13) 
0.4365769624710083

>  <score>  (13) 
5.595881462097168

$$$$
DLPOBEBPDQGZKH-UHFFFAOYSA-N
     RDKit          3D

 32 32  0  0  0  0  0  0  0  0999 V2000
  124.9398  123.8760   81.6651 C   0  0  0  0  0  0  0  0  0  0  0  0
  125.4757  124.0808   83.0722 C   0  0  0  0  0  0  0  0  0  0  0  0
  126.2074  122.8403   83.5773 C   0  0  0  0  0  0  0  0  0  0  0  0
  126.1094  122.7125   85.0185 N   0  0  0  0  0  0  0  0  0  0  0  0
  125.4664  121.6393   85.6018 C   0  0  0  0  0  0  0  0  0  0  0  0
  124.9706  120.7212   84.9531 O   0  0  0  0  0  0  0  0  0  0  0  0
  125.3242  121.6590   87.0913 C   0  0  0  0  0  0  0  0  0  0  0  0
  126.4715  121.5904   87.9011 C   0  0  0  0  0  0  0  0  0  0  0  0
  126.3573  121.6402   89.2889 C   0  0  0  0  0  0  0  0  0  0  0  0
  125.1008  121.7508   89.8745 C   0  0  0  0  0  0  0  0  0  0  0  0
  123.9508  121.7947   89.0797 C   0  0  0  0  0  0  0  0  0  0  0  0
  124.0393  121.7377   87.6844 C   0  0  0  0  0  0  0  0  0  0  0  0
  122.8948  121.7437   86.8480 N   0  0  0  0  0  0  0  0  0  0  0  0
  121.6383  122.3060   87.0703 C   0  0  0  0  0  0  0  0  0  0  0  0
  121.1369  122.4343   88.1882 O   0  0  0  0  0  0  0  0  0  0  0  0
  120.9193  122.7598   85.7703 C   0  0  0  0  0  0  0  0  0  0  0  0
  122.0331  123.7874   84.8208 Cl  0  0  0  0  0  0  0  0  0  0  0  0
  119.4452  123.6891   86.1446 Cl  0  0  0  0  0  0  0  0  0  0  0  0
  120.4817  121.3080   84.8276 Cl  0  0  0  0  0  0  0  0  0  0  0  0
  123.9134  123.4839   81.7171 H   0  0  0  0  0  0  0  0  0  0  0  0
  124.9385  124.8370   81.1298 H   0  0  0  0  0  0  0  0  0  0  0  0
  125.5796  123.1590   81.1298 H   0  0  0  0  0  0  0  0  0  0  0  0
  126.1736  124.9310   83.0688 H   0  0  0  0  0  0  0  0  0  0  0  0
  124.6244  124.2760   83.7410 H   0  0  0  0  0  0  0  0  0  0  0  0
  125.7643  121.9490   83.1089 H   0  0  0  0  0  0  0  0  0  0  0  0
  127.2706  122.9360   83.3119 H   0  0  0  0  0  0  0  0  0  0  0  0
  126.5281  123.4370   85.6190 H   0  0  0  0  0  0  0  0  0  0  0  0
  127.4643  121.4970   87.4367 H   0  0  0  0  0  0  0  0  0  0  0  0
  127.2576  121.5922   89.9190 H   0  0  0  0  0  0  0  0  0  0  0  0
  125.0109  121.8039   90.9695 H   0  0  0  0  0  0  0  0  0  0  0  0
  122.9634  121.8752   89.5580 H   0  0  0  0  0  0  0  0  0  0  0  0
  123.0077  121.2624   85.9444 H   0  0  0  0  0  0  0  0  0  0  0  0
  1  2  1  0
  2  3  1  0
  3  4  1  0
  4  5  1  0
  5  6  2  0
  5  7  1  0
  7  8  2  0
  8  9  1  0
  9 10  2  0
 10 11  1  0
 11 12  2  0
 12 13  1  0
 13 14  1  0
 14 15  2  0
 14 16  1  0
 16 17  1  0
 16 18  1  0
 16 19  1  0
 12  7  1  0
  1 20  1  0
  1 21  1  0
  1 22  1  0
  2 23  1  0
  2 24  1  0
  3 25  1  0
  3 26  1  0
  4 27  1  0
  8 28  1  0
  9 29  1  0
 10 30  1  0
 11 31  1  0
 13 32  1  0
M  END
>  <loss>  (14) 
0.43645626306533813

>  <score>  (14) 
5.595043182373047

$$$$
DLPOBEBPDQGZKH-UHFFFAOYSA-N
     RDKit          3D

 32 32  0  0  0  0  0  0  0  0999 V2000
  124.9642  123.8577   81.6477 C   0  0  0  0  0  0  0  0  0  0  0  0
  125.4533  124.0502   83.0734 C   0  0  0  0  0  0  0  0  0  0  0  0
  126.2167  122.8263   83.5721 C   0  0  0  0  0  0  0  0  0  0  0  0
  126.1275  122.6922   85.0134 N   0  0  0  0  0  0  0  0  0  0  0  0
  125.4509  121.6393   85.5956 C   0  0  0  0  0  0  0  0  0  0  0  0
  124.9204  120.7416   84.9458 O   0  0  0  0  0  0  0  0  0  0  0  0
  125.3172  121.6575   87.0859 C   0  0  0  0  0  0  0  0  0  0  0  0
  126.4696  121.5962   87.8891 C   0  0  0  0  0  0  0  0  0  0  0  0
  126.3630  121.6447   89.2776 C   0  0  0  0  0  0  0  0  0  0  0  0
  125.1093  121.7468   89.8704 C   0  0  0  0  0  0  0  0  0  0  0  0
  123.9544  121.7835   89.0823 C   0  0  0  0  0  0  0  0  0  0  0  0
  124.0352  121.7275   87.6865 C   0  0  0  0  0  0  0  0  0  0  0  0
  122.8859  121.7263   86.8568 N   0  0  0  0  0  0  0  0  0  0  0  0
  121.6395  122.3139   87.0693 C   0  0  0  0  0  0  0  0  0  0  0  0
  121.1420  122.4727   88.1851 O   0  0  0  0  0  0  0  0  0  0  0  0
  120.9262  122.7539   85.7614 C   0  0  0  0  0  0  0  0  0  0  0  0
  119.4474  123.6823   86.1195 Cl  0  0  0  0  0  0  0  0  0  0  0  0
  120.4978  121.2925   84.8295 Cl  0  0  0  0  0  0  0  0  0  0  0  0
  122.0421  123.7762   84.8088 Cl  0  0  0  0  0  0  0  0  0  0  0  0
  123.9407  123.4549   81.6625 H   0  0  0  0  0  0  0  0  0  0  0  0
  124.9700  124.8252   81.1243 H   0  0  0  0  0  0  0  0  0  0  0  0
  125.6277  123.1537   81.1243 H   0  0  0  0  0  0  0  0  0  0  0  0
  126.1189  124.9253   83.1080 H   0  0  0  0  0  0  0  0  0  0  0  0
  124.5774  124.1990   83.7220 H   0  0  0  0  0  0  0  0  0  0  0  0
  125.7934  121.9259   83.1029 H   0  0  0  0  0  0  0  0  0  0  0  0
  127.2762  122.9484   83.3029 H   0  0  0  0  0  0  0  0  0  0  0  0
  126.5780  123.3968   85.6147 H   0  0  0  0  0  0  0  0  0  0  0  0
  127.4603  121.5094   87.4190 H   0  0  0  0  0  0  0  0  0  0  0  0
  127.2673  121.6024   89.9025 H   0  0  0  0  0  0  0  0  0  0  0  0
  125.0253  121.7989   90.9660 H   0  0  0  0  0  0  0  0  0  0  0  0
  122.9693  121.8573   89.5663 H   0  0  0  0  0  0  0  0  0  0  0  0
  122.9862  121.2169   85.9671 H   0  0  0  0  0  0  0  0  0  0  0  0
  1  2  1  0
  2  3  1  0
  3  4  1  0
  4  5  1  0
  5  6  2  0
  5  7  1  0
  7  8  2  0
  8  9  1  0
  9 10  2  0
 10 11  1  0
 11 12  2  0
 12 13  1  0
 13 14  1  0
 14 15  2  0
 14 16  1  0
 16 17  1  0
 16 18  1  0
 16 19  1  0
 12  7  1  0
  1 20  1  0
  1 21  1  0
  1 22  1  0
  2 23  1  0
  2 24  1  0
  3 25  1  0
  3 26  1  0
  4 27  1  0
  8 28  1  0
  9 29  1  0
 10 30  1  0
 11 31  1  0
 13 32  1  0
M  END
>  <loss>  (15) 
0.43659067153930664

>  <score>  (15) 
5.585383415222168

$$$$
DLPOBEBPDQGZKH-UHFFFAOYSA-N
     RDKit          3D

 32 32  0  0  0  0  0  0  0  0999 V2000
  123.6100  124.7435   82.3490 C   0  0  0  0  0  0  0  0  0  0  0  0
  124.5458  123.6927   82.9290 C   0  0  0  0  0  0  0  0  0  0  0  0
  124.8270  123.9146   84.4115 C   0  0  0  0  0  0  0  0  0  0  0  0
  125.6980  122.8933   84.9609 N   0  0  0  0  0  0  0  0  0  0  0  0
  125.1663  121.7769   85.5764 C   0  0  0  0  0  0  0  0  0  0  0  0
  124.6088  120.8725   84.9595 O   0  0  0  0  0  0  0  0  0  0  0  0
  125.2330  121.7305   87.0716 C   0  0  0  0  0  0  0  0  0  0  0  0
  126.4844  121.6506   87.7085 C   0  0  0  0  0  0  0  0  0  0  0  0
  126.5673  121.6374   89.0993 C   0  0  0  0  0  0  0  0  0  0  0  0
  125.4051  121.6956   89.8602 C   0  0  0  0  0  0  0  0  0  0  0  0
  124.1536  121.7496   89.2380 C   0  0  0  0  0  0  0  0  0  0  0  0
  124.0440  121.7554   87.8428 C   0  0  0  0  0  0  0  0  0  0  0  0
  122.7921  121.7720   87.1780 N   0  0  0  0  0  0  0  0  0  0  0  0
  121.5076  121.8736   87.7114 C   0  0  0  0  0  0  0  0  0  0  0  0
  121.2283  121.5847   88.8760 O   0  0  0  0  0  0  0  0  0  0  0  0
  120.4499  122.3902   86.6978 C   0  0  0  0  0  0  0  0  0  0  0  0
  120.9622  123.9941   86.0962 Cl  0  0  0  0  0  0  0  0  0  0  0  0
  120.3516  121.2356   85.3394 Cl  0  0  0  0  0  0  0  0  0  0  0  0
  118.8475  122.5389   87.4640 Cl  0  0  0  0  0  0  0  0  0  0  0  0
  123.1217  125.2919   83.1681 H   0  0  0  0  0  0  0  0  0  0  0  0
  124.1867  125.4465   81.7298 H   0  0  0  0  0  0  0  0  0  0  0  0
  122.8452  124.2518   81.7298 H   0  0  0  0  0  0  0  0  0  0  0  0
  124.0855  122.7018   82.8018 H   0  0  0  0  0  0  0  0  0  0  0  0
  125.5035  123.7660   82.3928 H   0  0  0  0  0  0  0  0  0  0  0  0
  125.3073  124.8960   84.5383 H   0  0  0  0  0  0  0  0  0  0  0  0
  123.8683  123.8667   84.9487 H   0  0  0  0  0  0  0  0  0  0  0  0
  126.7199  123.0013   84.8916 H   0  0  0  0  0  0  0  0  0  0  0  0
  127.4027  121.5982   87.1053 H   0  0  0  0  0  0  0  0  0  0  0  0
  127.5485  121.5811   89.5934 H   0  0  0  0  0  0  0  0  0  0  0  0
  125.4702  121.6993   90.9583 H   0  0  0  0  0  0  0  0  0  0  0  0
  123.2429  121.7879   89.8537 H   0  0  0  0  0  0  0  0  0  0  0  0
  122.8378  121.6982   86.1517 H   0  0  0  0  0  0  0  0  0  0  0  0
  1  2  1  0
  2  3  1  0
  3  4  1  0
  4  5  1  0
  5  6  2  0
  5  7  1  0
  7  8  2  0
  8  9  1  0
  9 10  2  0
 10 11  1  0
 11 12  2  0
 12 13  1  0
 13 14  1  0
 14 15  2  0
 14 16  1  0
 16 17  1  0
 16 18  1  0
 16 19  1  0
 12  7  1  0
  1 20  1  0
  1 21  1  0
  1 22  1  0
  2 23  1  0
  2 24  1  0
  3 25  1  0
  3 26  1  0
  4 27  1  0
  8 28  1  0
  9 29  1  0
 10 30  1  0
 11 31  1  0
 13 32  1  0
M  END
>  <loss>  (16) 
0.6705890893936157

>  <score>  (16) 
5.229730129241943

$$$$
DLPOBEBPDQGZKH-UHFFFAOYSA-N
     RDKit          3D

 32 32  0  0  0  0  0  0  0  0999 V2000
  123.7314  124.8932   82.2591 C   0  0  0  0  0  0  0  0  0  0  0  0
  124.8208  124.7570   83.3096 C   0  0  0  0  0  0  0  0  0  0  0  0
  125.1588  123.2930   83.5774 C   0  0  0  0  0  0  0  0  0  0  0  0
  125.4352  123.0570   84.9813 N   0  0  0  0  0  0  0  0  0  0  0  0
  125.2219  121.8206   85.5568 C   0  0  0  0  0  0  0  0  0  0  0  0
  124.9732  120.8104   84.9031 O   0  0  0  0  0  0  0  0  0  0  0  0
  125.2339  121.7549   87.0517 C   0  0  0  0  0  0  0  0  0  0  0  0
  126.4589  121.7962   87.7405 C   0  0  0  0  0  0  0  0  0  0  0  0
  126.4843  121.7683   89.1335 C   0  0  0  0  0  0  0  0  0  0  0  0
  125.2914  121.6918   89.8441 C   0  0  0  0  0  0  0  0  0  0  0  0
  124.0683  121.6251   89.1691 C   0  0  0  0  0  0  0  0  0  0  0  0
  124.0176  121.6428   87.7708 C   0  0  0  0  0  0  0  0  0  0  0  0
  122.8002  121.5410   87.0517 N   0  0  0  0  0  0  0  0  0  0  0  0
  121.5584  122.1121   87.3272 C   0  0  0  0  0  0  0  0  0  0  0  0
  121.1485  122.3352   88.4673 O   0  0  0  0  0  0  0  0  0  0  0  0
  120.7290  122.4443   86.0565 C   0  0  0  0  0  0  0  0  0  0  0  0
  121.7367  123.4176   84.9451 Cl  0  0  0  0  0  0  0  0  0  0  0  0
  119.2621  123.3674   86.4724 Cl  0  0  0  0  0  0  0  0  0  0  0  0
  120.2619  120.9125   85.2672 Cl  0  0  0  0  0  0  0  0  0  0  0  0
  122.7571  125.0150   82.7549 H   0  0  0  0  0  0  0  0  0  0  0  0
  123.9357  125.7728   81.6309 H   0  0  0  0  0  0  0  0  0  0  0  0
  123.7129  123.9904   81.6309 H   0  0  0  0  0  0  0  0  0  0  0  0
  125.7252  125.2739   82.9560 H   0  0  0  0  0  0  0  0  0  0  0  0
  124.4556  125.2040   84.2460 H   0  0  0  0  0  0  0  0  0  0  0  0
  124.3068  122.6682   83.2714 H   0  0  0  0  0  0  0  0  0  0  0  0
  126.0604  123.0371   83.0015 H   0  0  0  0  0  0  0  0  0  0  0  0
  125.7980  123.8274   85.5607 H   0  0  0  0  0  0  0  0  0  0  0  0
  127.4020  121.8507   87.1770 H   0  0  0  0  0  0  0  0  0  0  0  0
  127.4443  121.8068   89.6690 H   0  0  0  0  0  0  0  0  0  0  0  0
  125.3099  121.6837   90.9439 H   0  0  0  0  0  0  0  0  0  0  0  0
  123.1336  121.5578   89.7451 H   0  0  0  0  0  0  0  0  0  0  0  0
  122.8386  120.9604   86.2018 H   0  0  0  0  0  0  0  0  0  0  0  0
  1  2  1  0
  2  3  1  0
  3  4  1  0
  4  5  1  0
  5  6  2  0
  5  7  1  0
  7  8  2  0
  8  9  1  0
  9 10  2  0
 10 11  1  0
 11 12  2  0
 12 13  1  0
 13 14  1  0
 14 15  2  0
 14 16  1  0
 16 17  1  0
 16 18  1  0
 16 19  1  0
 12  7  1  0
  1 20  1  0
  1 21  1  0
  1 22  1  0
  2 23  1  0
  2 24  1  0
  3 25  1  0
  3 26  1  0
  4 27  1  0
  8 28  1  0
  9 29  1  0
 10 30  1  0
 11 31  1  0
 13 32  1  0
M  END
>  <loss>  (17) 
0.6464892625808716

>  <score>  (17) 
5.077325820922852

$$$$
DLPOBEBPDQGZKH-UHFFFAOYSA-N
     RDKit          3D

 32 32  0  0  0  0  0  0  0  0999 V2000
  123.6882  124.9026   82.3026 C   0  0  0  0  0  0  0  0  0  0  0  0
  124.8516  124.7325   83.2652 C   0  0  0  0  0  0  0  0  0  0  0  0
  125.1297  123.2592   83.5507 C   0  0  0  0  0  0  0  0  0  0  0  0
  125.4518  123.0376   84.9472 N   0  0  0  0  0  0  0  0  0  0  0  0
  125.2894  121.7984   85.5333 C   0  0  0  0  0  0  0  0  0  0  0  0
  125.1133  120.7687   84.8867 O   0  0  0  0  0  0  0  0  0  0  0  0
  125.2641  121.7513   87.0287 C   0  0  0  0  0  0  0  0  0  0  0  0
  126.4737  121.7346   87.7453 C   0  0  0  0  0  0  0  0  0  0  0  0
  126.4660  121.7233   89.1387 C   0  0  0  0  0  0  0  0  0  0  0  0
  125.2551  121.7209   89.8222 C   0  0  0  0  0  0  0  0  0  0  0  0
  124.0456  121.7123   89.1198 C   0  0  0  0  0  0  0  0  0  0  0  0
  124.0276  121.7148   87.7206 C   0  0  0  0  0  0  0  0  0  0  0  0
  122.8230  121.6702   86.9746 N   0  0  0  0  0  0  0  0  0  0  0  0
  121.5408  122.0806   87.3376 C   0  0  0  0  0  0  0  0  0  0  0  0
  121.1425  122.1220   88.5026 O   0  0  0  0  0  0  0  0  0  0  0  0
  120.6499  122.4837   86.1306 C   0  0  0  0  0  0  0  0  0  0  0  0
  119.2664  123.4756   86.6588 Cl  0  0  0  0  0  0  0  0  0  0  0  0
  120.0485  120.9962   85.3475 Cl  0  0  0  0  0  0  0  0  0  0  0  0
  121.6352  123.4243   84.9720 Cl  0  0  0  0  0  0  0  0  0  0  0  0
  122.7574  125.0386   82.8728 H   0  0  0  0  0  0  0  0  0  0  0  0
  123.8624  125.7848   81.6691 H   0  0  0  0  0  0  0  0  0  0  0  0
  123.6026  124.0074   81.6691 H   0  0  0  0  0  0  0  0  0  0  0  0
  125.7507  125.1870   82.8233 H   0  0  0  0  0  0  0  0  0  0  0  0
  124.5902  125.2248   84.2135 H   0  0  0  0  0  0  0  0  0  0  0  0
  124.2368  122.6709   83.2926 H   0  0  0  0  0  0  0  0  0  0  0  0
  125.9936  122.9484   82.9448 H   0  0  0  0  0  0  0  0  0  0  0  0
  125.8089  123.8206   85.5132 H   0  0  0  0  0  0  0  0  0  0  0  0
  127.4309  121.7305   87.2033 H   0  0  0  0  0  0  0  0  0  0  0  0
  127.4145  121.7163   89.6959 H   0  0  0  0  0  0  0  0  0  0  0  0
  125.2483  121.7258   90.9222 H   0  0  0  0  0  0  0  0  0  0  0  0
  123.0959  121.7033   89.6747 H   0  0  0  0  0  0  0  0  0  0  0  0
  122.9072  121.2774   86.0262 H   0  0  0  0  0  0  0  0  0  0  0  0
  1  2  1  0
  2  3  1  0
  3  4  1  0
  4  5  1  0
  5  6  2  0
  5  7  1  0
  7  8  2  0
  8  9  1  0
  9 10  2  0
 10 11  1  0
 11 12  2  0
 12 13  1  0
 13 14  1  0
 14 15  2  0
 14 16  1  0
 16 17  1  0
 16 18  1  0
 16 19  1  0
 12  7  1  0
  1 20  1  0
  1 21  1  0
  1 22  1  0
  2 23  1  0
  2 24  1  0
  3 25  1  0
  3 26  1  0
  4 27  1  0
  8 28  1  0
  9 29  1  0
 10 30  1  0
 11 31  1  0
 13 32  1  0
M  END
>  <loss>  (18) 
0.6479668617248535

>  <score>  (18) 
5.0380964279174805

$$$$
DLPOBEBPDQGZKH-UHFFFAOYSA-N
     RDKit          3D

 32 32  0  0  0  0  0  0  0  0999 V2000
  123.6382  124.6974   82.2179 C   0  0  0  0  0  0  0  0  0  0  0  0
  124.7683  124.5539   83.2235 C   0  0  0  0  0  0  0  0  0  0  0  0
  125.0550  123.0878   83.5363 C   0  0  0  0  0  0  0  0  0  0  0  0
  125.3683  122.8925   84.9387 N   0  0  0  0  0  0  0  0  0  0  0  0
  124.9574  121.7615   85.6151 C   0  0  0  0  0  0  0  0  0  0  0  0
  124.4337  120.8000   85.0577 O   0  0  0  0  0  0  0  0  0  0  0  0
  125.1093  121.7664   87.1037 C   0  0  0  0  0  0  0  0  0  0  0  0
  126.3213  121.3490   87.6813 C   0  0  0  0  0  0  0  0  0  0  0  0
  126.4888  121.3786   89.0643 C   0  0  0  0  0  0  0  0  0  0  0  0
  125.4482  121.8163   89.8763 C   0  0  0  0  0  0  0  0  0  0  0  0
  124.2294  122.2103   89.3145 C   0  0  0  0  0  0  0  0  0  0  0  0
  124.0343  122.1813   87.9292 C   0  0  0  0  0  0  0  0  0  0  0  0
  122.8022  122.5387   87.3262 N   0  0  0  0  0  0  0  0  0  0  0  0
  121.5893  121.8511   87.3150 C   0  0  0  0  0  0  0  0  0  0  0  0
  121.4056  120.7831   87.9010 O   0  0  0  0  0  0  0  0  0  0  0  0
  120.4795  122.5576   86.4891 C   0  0  0  0  0  0  0  0  0  0  0  0
  118.8906  122.3947   87.2801 Cl  0  0  0  0  0  0  0  0  0  0  0  0
  120.8837  124.2933   86.3411 Cl  0  0  0  0  0  0  0  0  0  0  0  0
  120.4149  121.8098   84.8691 Cl  0  0  0  0  0  0  0  0  0  0  0  0
  122.6846  124.8185   82.7528 H   0  0  0  0  0  0  0  0  0  0  0  0
  123.8190  125.5798   81.5865 H   0  0  0  0  0  0  0  0  0  0  0  0
  123.5928  123.7978   81.5865 H   0  0  0  0  0  0  0  0  0  0  0  0
  125.6767  125.0153   82.8088 H   0  0  0  0  0  0  0  0  0  0  0  0
  124.4666  125.0534   84.1559 H   0  0  0  0  0  0  0  0  0  0  0  0
  124.1684  122.4886   83.2817 H   0  0  0  0  0  0  0  0  0  0  0  0
  125.9257  122.7732   82.9422 H   0  0  0  0  0  0  0  0  0  0  0  0
  125.9082  123.6122   85.4402 H   0  0  0  0  0  0  0  0  0  0  0  0
  127.1415  120.9974   87.0381 H   0  0  0  0  0  0  0  0  0  0  0  0
  127.4406  121.0568   89.5121 H   0  0  0  0  0  0  0  0  0  0  0  0
  125.5844  121.8529   90.9672 H   0  0  0  0  0  0  0  0  0  0  0  0
  123.4134  122.5475   89.9705 H   0  0  0  0  0  0  0  0  0  0  0  0
  122.8031  123.4374   86.8230 H   0  0  0  0  0  0  0  0  0  0  0  0
  1  2  1  0
  2  3  1  0
  3  4  1  0
  4  5  1  0
  5  6  2  0
  5  7  1  0
  7  8  2  0
  8  9  1  0
  9 10  2  0
 10 11  1  0
 11 12  2  0
 12 13  1  0
 13 14  1  0
 14 15  2  0
 14 16  1  0
 16 17  1  0
 16 18  1  0
 16 19  1  0
 12  7  1  0
  1 20  1  0
  1 21  1  0
  1 22  1  0
  2 23  1  0
  2 24  1  0
  3 25  1  0
  3 26  1  0
  4 27  1  0
  8 28  1  0
  9 29  1  0
 10 30  1  0
 11 31  1  0
 13 32  1  0
M  END
>  <loss>  (19) 
0.6308603882789612

>  <score>  (19) 
4.835308074951172

$$$$
DLPOBEBPDQGZKH-UHFFFAOYSA-N
     RDKit          3D

 32 32  0  0  0  0  0  0  0  0999 V2000
  123.6427  124.6907   82.2237 C   0  0  0  0  0  0  0  0  0  0  0  0
  124.7948  124.5571   83.2055 C   0  0  0  0  0  0  0  0  0  0  0  0
  125.0829  123.0945   83.5329 C   0  0  0  0  0  0  0  0  0  0  0  0
  125.3626  122.9083   84.9437 N   0  0  0  0  0  0  0  0  0  0  0  0
  124.9496  121.7743   85.6137 C   0  0  0  0  0  0  0  0  0  0  0  0
  124.4227  120.8175   85.0512 O   0  0  0  0  0  0  0  0  0  0  0  0
  125.1031  121.7699   87.1022 C   0  0  0  0  0  0  0  0  0  0  0  0
  126.3117  121.3379   87.6761 C   0  0  0  0  0  0  0  0  0  0  0  0
  126.4810  121.3585   89.0591 C   0  0  0  0  0  0  0  0  0  0  0  0
  125.4455  121.8018   89.8746 C   0  0  0  0  0  0  0  0  0  0  0  0
  124.2299  122.2103   89.3163 C   0  0  0  0  0  0  0  0  0  0  0  0
  124.0330  122.1906   87.9310 C   0  0  0  0  0  0  0  0  0  0  0  0
  122.8037  122.5629   87.3314 N   0  0  0  0  0  0  0  0  0  0  0  0
  121.5931  121.8723   87.2907 C   0  0  0  0  0  0  0  0  0  0  0  0
  121.4078  120.7881   87.8456 O   0  0  0  0  0  0  0  0  0  0  0  0
  120.4883  122.5978   86.4747 C   0  0  0  0  0  0  0  0  0  0  0  0
  120.8271  124.3537   86.4744 Cl  0  0  0  0  0  0  0  0  0  0  0  0
  118.8780  122.3151   87.1844 Cl  0  0  0  0  0  0  0  0  0  0  0  0
  120.5168  121.9745   84.8018 Cl  0  0  0  0  0  0  0  0  0  0  0  0
  122.6991  124.8001   82.7784 H   0  0  0  0  0  0  0  0  0  0  0  0
  123.8010  125.5765   81.5910 H   0  0  0  0  0  0  0  0  0  0  0  0
  123.5940  123.7922   81.5910 H   0  0  0  0  0  0  0  0  0  0  0  0
  125.6952  125.0087   82.7637 H   0  0  0  0  0  0  0  0  0  0  0  0
  124.5161  125.0712   84.1372 H   0  0  0  0  0  0  0  0  0  0  0  0
  124.2067  122.4882   83.2597 H   0  0  0  0  0  0  0  0  0  0  0  0
  125.9699  122.7824   82.9622 H   0  0  0  0  0  0  0  0  0  0  0  0
  125.8799  123.6369   85.4560 H   0  0  0  0  0  0  0  0  0  0  0  0
  127.1279  120.9820   87.0302 H   0  0  0  0  0  0  0  0  0  0  0  0
  127.4302  121.0254   89.5041 H   0  0  0  0  0  0  0  0  0  0  0  0
  125.5833  121.8313   90.9655 H   0  0  0  0  0  0  0  0  0  0  0  0
  123.4178  122.5518   89.9750 H   0  0  0  0  0  0  0  0  0  0  0  0
  122.8050  123.4769   86.8564 H   0  0  0  0  0  0  0  0  0  0  0  0
  1  2  1  0
  2  3  1  0
  3  4  1  0
  4  5  1  0
  5  6  2  0
  5  7  1  0
  7  8  2  0
  8  9  1  0
  9 10  2  0
 10 11  1  0
 11 12  2  0
 12 13  1  0
 13 14  1  0
 14 15  2  0
 14 16  1  0
 16 17  1  0
 16 18  1  0
 16 19  1  0
 12  7  1  0
  1 20  1  0
  1 21  1  0
  1 22  1  0
  2 23  1  0
  2 24  1  0
  3 25  1  0
  3 26  1  0
  4 27  1  0
  8 28  1  0
  9 29  1  0
 10 30  1  0
 11 31  1  0
 13 32  1  0
M  END
>  <loss>  (20) 
0.6337199211120605

>  <score>  (20) 
4.817129135131836

$$$$
DLPOBEBPDQGZKH-UHFFFAOYSA-N
     RDKit          3D

 32 32  0  0  0  0  0  0  0  0999 V2000
  123.7648  124.6661   82.2142 C   0  0  0  0  0  0  0  0  0  0  0  0
  124.5880  123.5403   82.8236 C   0  0  0  0  0  0  0  0  0  0  0  0
  124.9771  123.8183   84.2718 C   0  0  0  0  0  0  0  0  0  0  0  0
  125.6353  122.6823   84.8880 N   0  0  0  0  0  0  0  0  0  0  0  0
  124.9065  121.7595   85.6130 C   0  0  0  0  0  0  0  0  0  0  0  0
  124.1756  120.9220   85.0900 O   0  0  0  0  0  0  0  0  0  0  0  0
  125.0898  121.7673   87.0990 C   0  0  0  0  0  0  0  0  0  0  0  0
  126.3385  121.4220   87.6464 C   0  0  0  0  0  0  0  0  0  0  0  0
  126.5187  121.3941   89.0277 C   0  0  0  0  0  0  0  0  0  0  0  0
  125.4594  121.7176   89.8682 C   0  0  0  0  0  0  0  0  0  0  0  0
  124.2203  122.0874   89.3352 C   0  0  0  0  0  0  0  0  0  0  0  0
  124.0171  122.1310   87.9512 C   0  0  0  0  0  0  0  0  0  0  0  0
  122.7870  122.5367   87.3752 N   0  0  0  0  0  0  0  0  0  0  0  0
  121.5565  121.8807   87.3620 C   0  0  0  0  0  0  0  0  0  0  0  0
  121.3514  120.8049   87.9262 O   0  0  0  0  0  0  0  0  0  0  0  0
  120.4567  122.6328   86.5635 C   0  0  0  0  0  0  0  0  0  0  0  0
  120.9510  124.3389   86.3823 Cl  0  0  0  0  0  0  0  0  0  0  0  0
  118.8884  122.5585   87.4073 Cl  0  0  0  0  0  0  0  0  0  0  0  0
  120.2914  121.8737   84.9532 Cl  0  0  0  0  0  0  0  0  0  0  0  0
  123.3214  125.2725   83.0178 H   0  0  0  0  0  0  0  0  0  0  0  0
  124.4140  125.2999   81.5923 H   0  0  0  0  0  0  0  0  0  0  0  0
  122.9640  124.2396   81.5923 H   0  0  0  0  0  0  0  0  0  0  0  0
  123.9974  122.6129   82.7889 H   0  0  0  0  0  0  0  0  0  0  0  0
  125.5159  123.4513   82.2396 H   0  0  0  0  0  0  0  0  0  0  0  0
  125.6603  124.6800   84.2963 H   0  0  0  0  0  0  0  0  0  0  0  0
  124.0557  124.0229   84.8366 H   0  0  0  0  0  0  0  0  0  0  0  0
  126.6531  122.5627   84.7844 H   0  0  0  0  0  0  0  0  0  0  0  0
  127.1775  121.1724   86.9802 H   0  0  0  0  0  0  0  0  0  0  0  0
  127.4953  121.1173   89.4517 H   0  0  0  0  0  0  0  0  0  0  0  0
  125.5967  121.6825   90.9591 H   0  0  0  0  0  0  0  0  0  0  0  0
  123.3940  122.3476   90.0131 H   0  0  0  0  0  0  0  0  0  0  0  0
  122.8047  123.4487   86.8967 H   0  0  0  0  0  0  0  0  0  0  0  0
  1  2  1  0
  2  3  1  0
  3  4  1  0
  4  5  1  0
  5  6  2  0
  5  7  1  0
  7  8  2  0
  8  9  1  0
  9 10  2  0
 10 11  1  0
 11 12  2  0
 12 13  1  0
 13 14  1  0
 14 15  2  0
 14 16  1  0
 16 17  1  0
 16 18  1  0
 16 19  1  0
 12  7  1  0
  1 20  1  0
  1 21  1  0
  1 22  1  0
  2 23  1  0
  2 24  1  0
  3 25  1  0
  3 26  1  0
  4 27  1  0
  8 28  1  0
  9 29  1  0
 10 30  1  0
 11 31  1  0
 13 32  1  0
M  END
>  <loss>  (21) 
0.6519415974617004

>  <score>  (21) 
4.877008438110352

$$$$
DLPOBEBPDQGZKH-UHFFFAOYSA-N
     RDKit          3D

 32 32  0  0  0  0  0  0  0  0999 V2000
  123.6222  124.6748   82.2305 C   0  0  0  0  0  0  0  0  0  0  0  0
  124.7684  124.5580   83.2213 C   0  0  0  0  0  0  0  0  0  0  0  0
  125.0773  123.0997   83.5489 C   0  0  0  0  0  0  0  0  0  0  0  0
  125.3451  122.9152   84.9622 N   0  0  0  0  0  0  0  0  0  0  0  0
  124.9312  121.7795   85.6287 C   0  0  0  0  0  0  0  0  0  0  0  0
  124.3949  120.8288   85.0648 O   0  0  0  0  0  0  0  0  0  0  0  0
  125.0963  121.7654   87.1159 C   0  0  0  0  0  0  0  0  0  0  0  0
  126.3006  121.3074   87.6785 C   0  0  0  0  0  0  0  0  0  0  0  0
  126.4810  121.3186   89.0601 C   0  0  0  0  0  0  0  0  0  0  0  0
  125.4609  121.7785   89.8857 C   0  0  0  0  0  0  0  0  0  0  0  0
  124.2493  122.2133   89.3387 C   0  0  0  0  0  0  0  0  0  0  0  0
  124.0412  122.2034   87.9550 C   0  0  0  0  0  0  0  0  0  0  0  0
  122.8148  122.6025   87.3667 N   0  0  0  0  0  0  0  0  0  0  0  0
  121.6074  121.9104   87.2803 C   0  0  0  0  0  0  0  0  0  0  0  0
  121.4353  120.7799   87.7386 O   0  0  0  0  0  0  0  0  0  0  0  0
  120.4879  122.6986   86.5465 C   0  0  0  0  0  0  0  0  0  0  0  0
  118.8750  122.0851   86.9925 Cl  0  0  0  0  0  0  0  0  0  0  0  0
  120.7258  122.5164   84.7865 Cl  0  0  0  0  0  0  0  0  0  0  0  0
  120.6027  124.4248   86.9994 Cl  0  0  0  0  0  0  0  0  0  0  0  0
  122.6729  124.7715   82.7777 H   0  0  0  0  0  0  0  0  0  0  0  0
  123.7731  125.5622   81.5982 H   0  0  0  0  0  0  0  0  0  0  0  0
  123.5910  123.7751   81.5982 H   0  0  0  0  0  0  0  0  0  0  0  0
  125.6651  125.0247   82.7874 H   0  0  0  0  0  0  0  0  0  0  0  0
  124.4741  125.0661   84.1514 H   0  0  0  0  0  0  0  0  0  0  0  0
  124.2142  122.4796   83.2652 H   0  0  0  0  0  0  0  0  0  0  0  0
  125.9754  122.8036   82.9870 H   0  0  0  0  0  0  0  0  0  0  0  0
  125.8544  123.6462   85.4789 H   0  0  0  0  0  0  0  0  0  0  0  0
  127.1045  120.9382   87.0246 H   0  0  0  0  0  0  0  0  0  0  0  0
  127.4270  120.9649   89.4962 H   0  0  0  0  0  0  0  0  0  0  0  0
  125.6078  121.8005   90.9756 H   0  0  0  0  0  0  0  0  0  0  0  0
  123.4492  122.5677   90.0053 H   0  0  0  0  0  0  0  0  0  0  0  0
  122.8157  123.5404   86.9410 H   0  0  0  0  0  0  0  0  0  0  0  0
  1  2  1  0
  2  3  1  0
  3  4  1  0
  4  5  1  0
  5  6  2  0
  5  7  1  0
  7  8  2  0
  8  9  1  0
  9 10  2  0
 10 11  1  0
 11 12  2  0
 12 13  1  0
 13 14  1  0
 14 15  2  0
 14 16  1  0
 16 17  1  0
 16 18  1  0
 16 19  1  0
 12  7  1  0
  1 20  1  0
  1 21  1  0
  1 22  1  0
  2 23  1  0
  2 24  1  0
  3 25  1  0
  3 26  1  0
  4 27  1  0
  8 28  1  0
  9 29  1  0
 10 30  1  0
 11 31  1  0
 13 32  1  0
M  END
>  <loss>  (22) 
0.6397393345832825

>  <score>  (22) 
4.80273962020874

$$$$
DLPOBEBPDQGZKH-UHFFFAOYSA-N
     RDKit          3D

 32 32  0  0  0  0  0  0  0  0999 V2000
  123.6175  124.6534   82.2442 C   0  0  0  0  0  0  0  0  0  0  0  0
  124.8215  124.5252   83.1623 C   0  0  0  0  0  0  0  0  0  0  0  0
  125.0956  123.0679   83.5239 C   0  0  0  0  0  0  0  0  0  0  0  0
  125.3446  122.9079   84.9436 N   0  0  0  0  0  0  0  0  0  0  0  0
  124.9780  121.7568   85.6113 C   0  0  0  0  0  0  0  0  0  0  0  0
  124.4982  120.7773   85.0455 O   0  0  0  0  0  0  0  0  0  0  0  0
  125.1211  121.7595   87.1008 C   0  0  0  0  0  0  0  0  0  0  0  0
  126.3210  121.3181   87.6857 C   0  0  0  0  0  0  0  0  0  0  0  0
  126.4809  121.3451   89.0697 C   0  0  0  0  0  0  0  0  0  0  0  0
  125.4446  121.8041   89.8753 C   0  0  0  0  0  0  0  0  0  0  0  0
  124.2373  122.2222   89.3061 C   0  0  0  0  0  0  0  0  0  0  0  0
  124.0498  122.1963   87.9197 C   0  0  0  0  0  0  0  0  0  0  0  0
  122.8287  122.5781   87.3093 N   0  0  0  0  0  0  0  0  0  0  0  0
  121.6053  121.9098   87.2819 C   0  0  0  0  0  0  0  0  0  0  0  0
  121.3967  120.8455   87.8662 O   0  0  0  0  0  0  0  0  0  0  0  0
  120.5184  122.6328   86.4401 C   0  0  0  0  0  0  0  0  0  0  0  0
  119.0403  122.9032   87.3988 Cl  0  0  0  0  0  0  0  0  0  0  0  0
  121.1605  124.2113   85.8978 Cl  0  0  0  0  0  0  0  0  0  0  0  0
  120.1291  121.6177   85.0238 Cl  0  0  0  0  0  0  0  0  0  0  0  0
  122.7039  124.7507   82.8491 H   0  0  0  0  0  0  0  0  0  0  0  0
  123.7335  125.5443   81.6095 H   0  0  0  0  0  0  0  0  0  0  0  0
  123.5433  123.7581   81.6095 H   0  0  0  0  0  0  0  0  0  0  0  0
  125.7046  124.9396   82.6538 H   0  0  0  0  0  0  0  0  0  0  0  0
  124.6091  125.0772   84.0897 H   0  0  0  0  0  0  0  0  0  0  0  0
  124.2224  122.4604   83.2439 H   0  0  0  0  0  0  0  0  0  0  0  0
  125.9930  122.7410   82.9782 H   0  0  0  0  0  0  0  0  0  0  0  0
  125.8044  123.6686   85.4642 H   0  0  0  0  0  0  0  0  0  0  0  0
  127.1378  120.9497   87.0476 H   0  0  0  0  0  0  0  0  0  0  0  0
  127.4234  121.0046   89.5232 H   0  0  0  0  0  0  0  0  0  0  0  0
  125.5751  121.8386   90.9670 H   0  0  0  0  0  0  0  0  0  0  0  0
  123.4243  122.5761   89.9571 H   0  0  0  0  0  0  0  0  0  0  0  0
  122.8480  123.4809   86.8137 H   0  0  0  0  0  0  0  0  0  0  0  0
  1  2  1  0
  2  3  1  0
  3  4  1  0
  4  5  1  0
  5  6  2  0
  5  7  1  0
  7  8  2  0
  8  9  1  0
  9 10  2  0
 10 11  1  0
 11 12  2  0
 12 13  1  0
 13 14  1  0
 14 15  2  0
 14 16  1  0
 16 17  1  0
 16 18  1  0
 16 19  1  0
 12  7  1  0
  1 20  1  0
  1 21  1  0
  1 22  1  0
  2 23  1  0
  2 24  1  0
  3 25  1  0
  3 26  1  0
  4 27  1  0
  8 28  1  0
  9 29  1  0
 10 30  1  0
 11 31  1  0
 13 32  1  0
M  END
>  <loss>  (23) 
0.6428366899490356

>  <score>  (23) 
4.807061672210693

$$$$
DLPOBEBPDQGZKH-UHFFFAOYSA-N
     RDKit          3D

 32 32  0  0  0  0  0  0  0  0999 V2000
  123.9262  124.7438   82.1921 C   0  0  0  0  0  0  0  0  0  0  0  0
  124.6674  123.5704   82.8167 C   0  0  0  0  0  0  0  0  0  0  0  0
  125.0453  123.8255   84.2721 C   0  0  0  0  0  0  0  0  0  0  0  0
  125.7049  122.6824   84.8734 N   0  0  0  0  0  0  0  0  0  0  0  0
  124.9765  121.7463   85.5815 C   0  0  0  0  0  0  0  0  0  0  0  0
  124.2807  120.8898   85.0416 O   0  0  0  0  0  0  0  0  0  0  0  0
  125.1159  121.7650   87.0722 C   0  0  0  0  0  0  0  0  0  0  0  0
  126.3396  121.3972   87.6597 C   0  0  0  0  0  0  0  0  0  0  0  0
  126.4781  121.3792   89.0461 C   0  0  0  0  0  0  0  0  0  0  0  0
  125.4020  121.7349   89.8515 C   0  0  0  0  0  0  0  0  0  0  0  0
  124.1880  122.1270   89.2783 C   0  0  0  0  0  0  0  0  0  0  0  0
  124.0270  122.1612   87.8885 C   0  0  0  0  0  0  0  0  0  0  0  0
  122.8240  122.5886   87.2723 N   0  0  0  0  0  0  0  0  0  0  0  0
  121.5851  121.9513   87.2121 C   0  0  0  0  0  0  0  0  0  0  0  0
  121.3229  120.9119   87.8191 O   0  0  0  0  0  0  0  0  0  0  0  0
  120.5550  122.6741   86.3013 C   0  0  0  0  0  0  0  0  0  0  0  0
  121.3938  123.9791   85.4173 Cl  0  0  0  0  0  0  0  0  0  0  0  0
  119.2269  123.3714   87.2641 Cl  0  0  0  0  0  0  0  0  0  0  0  0
  119.8796  121.4918   85.1424 Cl  0  0  0  0  0  0  0  0  0  0  0  0
  123.5203  125.3863   82.9873 H   0  0  0  0  0  0  0  0  0  0  0  0
  124.6206  125.3262   81.5687 H   0  0  0  0  0  0  0  0  0  0  0  0
  123.1019  124.3669   81.5687 H   0  0  0  0  0  0  0  0  0  0  0  0
  124.0220  122.6808   82.7707 H   0  0  0  0  0  0  0  0  0  0  0  0
  125.5991  123.4243   82.2505 H   0  0  0  0  0  0  0  0  0  0  0  0
  125.7239  124.6900   84.3160 H   0  0  0  0  0  0  0  0  0  0  0  0
  124.1190  124.0160   84.8340 H   0  0  0  0  0  0  0  0  0  0  0  0
  126.7235  122.5677   84.7718 H   0  0  0  0  0  0  0  0  0  0  0  0
  127.1920  121.1221   87.0213 H   0  0  0  0  0  0  0  0  0  0  0  0
  127.4352  121.0848   89.5015 H   0  0  0  0  0  0  0  0  0  0  0  0
  125.5061  121.7076   90.9463 H   0  0  0  0  0  0  0  0  0  0  0  0
  123.3482  122.4125   89.9288 H   0  0  0  0  0  0  0  0  0  0  0  0
  122.8720  123.5029   86.8003 H   0  0  0  0  0  0  0  0  0  0  0  0
  1  2  1  0
  2  3  1  0
  3  4  1  0
  4  5  1  0
  5  6  2  0
  5  7  1  0
  7  8  2  0
  8  9  1  0
  9 10  2  0
 10 11  1  0
 11 12  2  0
 12 13  1  0
 13 14  1  0
 14 15  2  0
 14 16  1  0
 16 17  1  0
 16 18  1  0
 16 19  1  0
 12  7  1  0
  1 20  1  0
  1 21  1  0
  1 22  1  0
  2 23  1  0
  2 24  1  0
  3 25  1  0
  3 26  1  0
  4 27  1  0
  8 28  1  0
  9 29  1  0
 10 30  1  0
 11 31  1  0
 13 32  1  0
M  END
>  <loss>  (24) 
0.6506616473197937

>  <score>  (24) 
4.800707817077637

$$$$
DLPOBEBPDQGZKH-UHFFFAOYSA-N
     RDKit          3D

 32 32  0  0  0  0  0  0  0  0999 V2000
  123.7871  124.7163   82.2370 C   0  0  0  0  0  0  0  0  0  0  0  0
  124.6046  123.5856   82.8451 C   0  0  0  0  0  0  0  0  0  0  0  0
  124.9197  123.8191   84.3190 C   0  0  0  0  0  0  0  0  0  0  0  0
  125.6339  122.7028   84.9082 N   0  0  0  0  0  0  0  0  0  0  0  0
  124.9536  121.7328   85.6183 C   0  0  0  0  0  0  0  0  0  0  0  0
  124.1990  120.9201   85.0897 O   0  0  0  0  0  0  0  0  0  0  0  0
  125.1167  121.7424   87.1067 C   0  0  0  0  0  0  0  0  0  0  0  0
  126.3326  121.3216   87.6746 C   0  0  0  0  0  0  0  0  0  0  0  0
  126.5132  121.3528   89.0558 C   0  0  0  0  0  0  0  0  0  0  0  0
  125.4816  121.7952   89.8765 C   0  0  0  0  0  0  0  0  0  0  0  0
  124.2590  122.1920   89.3250 C   0  0  0  0  0  0  0  0  0  0  0  0
  124.0507  122.1616   87.9415 C   0  0  0  0  0  0  0  0  0  0  0  0
  122.8133  122.5209   87.3503 N   0  0  0  0  0  0  0  0  0  0  0  0
  121.5943  121.8437   87.3672 C   0  0  0  0  0  0  0  0  0  0  0  0
  121.4111  120.7847   87.9693 O   0  0  0  0  0  0  0  0  0  0  0  0
  120.4762  122.5509   86.5531 C   0  0  0  0  0  0  0  0  0  0  0  0
  121.0707  124.1529   86.0268 Cl  0  0  0  0  0  0  0  0  0  0  0  0
  120.0897  121.5486   85.1270 Cl  0  0  0  0  0  0  0  0  0  0  0  0
  119.0067  122.7686   87.5381 Cl  0  0  0  0  0  0  0  0  0  0  0  0
  123.3474  125.3244   83.0412 H   0  0  0  0  0  0  0  0  0  0  0  0
  124.4394  125.3470   81.6152 H   0  0  0  0  0  0  0  0  0  0  0  0
  122.9838  124.2945   81.6152 H   0  0  0  0  0  0  0  0  0  0  0  0
  124.0361  122.6488   82.7502 H   0  0  0  0  0  0  0  0  0  0  0  0
  125.5605  123.5358   82.3031 H   0  0  0  0  0  0  0  0  0  0  0  0
  125.5385  124.7239   84.4103 H   0  0  0  0  0  0  0  0  0  0  0  0
  123.9659  123.9317   84.8553 H   0  0  0  0  0  0  0  0  0  0  0  0
  126.6554  122.6328   84.7964 H   0  0  0  0  0  0  0  0  0  0  0  0
  127.1456  120.9658   87.0246 H   0  0  0  0  0  0  0  0  0  0  0  0
  127.4680  121.0286   89.4953 H   0  0  0  0  0  0  0  0  0  0  0  0
  125.6280  121.8334   90.9660 H   0  0  0  0  0  0  0  0  0  0  0  0
  123.4501  122.5327   89.9880 H   0  0  0  0  0  0  0  0  0  0  0  0
  122.8148  123.4116   86.8331 H   0  0  0  0  0  0  0  0  0  0  0  0
  1  2  1  0
  2  3  1  0
  3  4  1  0
  4  5  1  0
  5  6  2  0
  5  7  1  0
  7  8  2  0
  8  9  1  0
  9 10  2  0
 10 11  1  0
 11 12  2  0
 12 13  1  0
 13 14  1  0
 14 15  2  0
 14 16  1  0
 16 17  1  0
 16 18  1  0
 16 19  1  0
 12  7  1  0
  1 20  1  0
  1 21  1  0
  1 22  1  0
  2 23  1  0
  2 24  1  0
  3 25  1  0
  3 26  1  0
  4 27  1  0
  8 28  1  0
  9 29  1  0
 10 30  1  0
 11 31  1  0
 13 32  1  0
M  END
>  <loss>  (25) 
0.6510975360870361

>  <score>  (25) 
4.685800552368164

$$$$
