FEPGGPIAJYESNZ-UHFFFAOYSA-N
     RDKit          3D

 26 26  0  0  0  0  0  0  0  0999 V2000
  118.9736  124.0987   84.1160 C   0  0  0  0  0  0  0  0  0  0  0  0
  120.2366  123.7742   84.8746 C   0  0  0  0  0  0  0  0  0  0  0  0
  121.3229  124.1963   84.4940 O   0  0  0  0  0  0  0  0  0  0  0  0
  119.9978  122.9608   85.9678 N   0  0  0  0  0  0  0  0  0  0  0  0
  120.9160  122.5708   86.9660 C   0  0  0  0  0  0  0  0  0  0  0  0
  120.3967  122.2701   88.2285 C   0  0  0  0  0  0  0  0  0  0  0  0
  121.2439  121.8776   89.2647 C   0  0  0  0  0  0  0  0  0  0  0  0
  122.6204  121.7816   89.0512 C   0  0  0  0  0  0  0  0  0  0  0  0
  123.1585  122.0780   87.8002 C   0  0  0  0  0  0  0  0  0  0  0  0
  124.5335  122.0092   87.4897 N   0  0  0  0  0  0  0  0  0  0  0  0
  125.1327  121.5270   86.3207 C   0  0  0  0  0  0  0  0  0  0  0  0
  124.5088  120.9972   85.4003 O   0  0  0  0  0  0  0  0  0  0  0  0
  126.6690  121.7463   86.2705 C   0  0  0  0  0  0  0  0  0  0  0  0
  127.2305  122.7183   87.6503 Cl  0  0  0  0  0  0  0  0  0  0  0  0
  127.4595  120.1440   86.2983 Cl  0  0  0  0  0  0  0  0  0  0  0  0
  127.0872  122.5856   84.7464 Cl  0  0  0  0  0  0  0  0  0  0  0  0
  122.2961  122.4721   86.7636 C   0  0  0  0  0  0  0  0  0  0  0  0
  118.1616  124.3074   84.8281 H   0  0  0  0  0  0  0  0  0  0  0  0
  119.1427  124.9826   83.4834 H   0  0  0  0  0  0  0  0  0  0  0  0
  118.6957  123.2428   83.4834 H   0  0  0  0  0  0  0  0  0  0  0  0
  119.0387  122.5977   86.0643 H   0  0  0  0  0  0  0  0  0  0  0  0
  119.3136  122.3434   88.4059 H   0  0  0  0  0  0  0  0  0  0  0  0
  120.8258  121.6427   90.2546 H   0  0  0  0  0  0  0  0  0  0  0  0
  123.2822  121.4710   89.8730 H   0  0  0  0  0  0  0  0  0  0  0  0
  125.1768  122.3577   88.2147 H   0  0  0  0  0  0  0  0  0  0  0  0
  122.7144  122.7075   85.7739 H   0  0  0  0  0  0  0  0  0  0  0  0
  1  2  1  0
  2  3  2  0
  2  4  1  0
  4  5  1  0
  5  6  2  0
  6  7  1  0
  7  8  2  0
  8  9  1  0
  9 10  1  0
 10 11  1  0
 11 12  2  0
 11 13  1  0
 13 14  1  0
 13 15  1  0
 13 16  1  0
  9 17  2  0
 17  5  1  0
  1 18  1  0
  1 19  1  0
  1 20  1  0
  4 21  1  0
  6 22  1  0
  7 23  1  0
  8 24  1  0
 10 25  1  0
 17 26  1  0
M  END
>  <loss>  (1) 
0.4011744260787964

>  <score>  (1) 
6.595903396606445

$$$$
FEPGGPIAJYESNZ-UHFFFAOYSA-N
     RDKit          3D

 26 26  0  0  0  0  0  0  0  0999 V2000
  119.0248  124.1342   84.1007 C   0  0  0  0  0  0  0  0  0  0  0  0
  120.2558  123.7747   84.8954 C   0  0  0  0  0  0  0  0  0  0  0  0
  121.3594  124.1926   84.5637 O   0  0  0  0  0  0  0  0  0  0  0  0
  119.9661  122.9383   85.9578 N   0  0  0  0  0  0  0  0  0  0  0  0
  120.8235  122.5557   87.0117 C   0  0  0  0  0  0  0  0  0  0  0  0
  120.3906  122.2924   88.3102 C   0  0  0  0  0  0  0  0  0  0  0  0
  121.3068  121.9177   89.2938 C   0  0  0  0  0  0  0  0  0  0  0  0
  122.6620  121.8041   88.9846 C   0  0  0  0  0  0  0  0  0  0  0  0
  123.1178  122.0639   87.6882 C   0  0  0  0  0  0  0  0  0  0  0  0
  124.5036  121.9249   87.4595 N   0  0  0  0  0  0  0  0  0  0  0  0
  125.1496  121.5205   86.2854 C   0  0  0  0  0  0  0  0  0  0  0  0
  124.5729  120.9810   85.3397 O   0  0  0  0  0  0  0  0  0  0  0  0
  126.6837  121.7648   86.2964 C   0  0  0  0  0  0  0  0  0  0  0  0
  127.1597  122.4776   87.8688 Cl  0  0  0  0  0  0  0  0  0  0  0  0
  127.4877  120.1823   86.1020 Cl  0  0  0  0  0  0  0  0  0  0  0  0
  127.1693  122.8622   84.9850 Cl  0  0  0  0  0  0  0  0  0  0  0  0
  122.1908  122.4375   86.7104 C   0  0  0  0  0  0  0  0  0  0  0  0
  118.2012  124.3747   84.7891 H   0  0  0  0  0  0  0  0  0  0  0  0
  119.2396  125.0071   83.4668 H   0  0  0  0  0  0  0  0  0  0  0  0
  118.7361  123.2829   83.4668 H   0  0  0  0  0  0  0  0  0  0  0  0
  119.0129  122.5487   85.9830 H   0  0  0  0  0  0  0  0  0  0  0  0
  119.3230  122.3803   88.5604 H   0  0  0  0  0  0  0  0  0  0  0  0
  120.9588  121.7113   90.3167 H   0  0  0  0  0  0  0  0  0  0  0  0
  123.3774  121.5080   89.7660 H   0  0  0  0  0  0  0  0  0  0  0  0
  125.1163  122.1492   88.2564 H   0  0  0  0  0  0  0  0  0  0  0  0
  122.5382  122.6425   85.6870 H   0  0  0  0  0  0  0  0  0  0  0  0
  1  2  1  0
  2  3  2  0
  2  4  1  0
  4  5  1  0
  5  6  2  0
  6  7  1  0
  7  8  2  0
  8  9  1  0
  9 10  1  0
 10 11  1  0
 11 12  2  0
 11 13  1  0
 13 14  1  0
 13 15  1  0
 13 16  1  0
  9 17  2  0
 17  5  1  0
  1 18  1  0
  1 19  1  0
  1 20  1  0
  4 21  1  0
  6 22  1  0
  7 23  1  0
  8 24  1  0
 10 25  1  0
 17 26  1  0
M  END
>  <loss>  (2) 
0.4032074213027954

>  <score>  (2) 
6.593122482299805

$$$$
FEPGGPIAJYESNZ-UHFFFAOYSA-N
     RDKit          3D

 26 26  0  0  0  0  0  0  0  0999 V2000
  119.0606  124.2129   84.1519 C   0  0  0  0  0  0  0  0  0  0  0  0
  120.3093  123.7861   84.8832 C   0  0  0  0  0  0  0  0  0  0  0  0
  121.4066  124.2213   84.5546 O   0  0  0  0  0  0  0  0  0  0  0  0
  120.0398  122.8718   85.8869 N   0  0  0  0  0  0  0  0  0  0  0  0
  120.8709  122.5186   86.9721 C   0  0  0  0  0  0  0  0  0  0  0  0
  120.3988  122.2200   88.2479 C   0  0  0  0  0  0  0  0  0  0  0  0
  121.2919  121.8789   89.2653 C   0  0  0  0  0  0  0  0  0  0  0  0
  122.6656  121.8315   89.0193 C   0  0  0  0  0  0  0  0  0  0  0  0
  123.1604  122.1248   87.7509 C   0  0  0  0  0  0  0  0  0  0  0  0
  124.5299  122.1036   87.4091 N   0  0  0  0  0  0  0  0  0  0  0  0
  125.1265  121.5509   86.2682 C   0  0  0  0  0  0  0  0  0  0  0  0
  124.4986  120.9928   85.3682 O   0  0  0  0  0  0  0  0  0  0  0  0
  126.6751  121.6673   86.2560 C   0  0  0  0  0  0  0  0  0  0  0  0
  127.2558  121.9253   87.9314 Cl  0  0  0  0  0  0  0  0  0  0  0  0
  127.2185  123.0129   85.2315 Cl  0  0  0  0  0  0  0  0  0  0  0  0
  127.3349  120.1239   85.6429 Cl  0  0  0  0  0  0  0  0  0  0  0  0
  122.2539  122.4678   86.7339 C   0  0  0  0  0  0  0  0  0  0  0  0
  118.2815  124.4793   84.8813 H   0  0  0  0  0  0  0  0  0  0  0  0
  119.2855  125.0852   83.5206 H   0  0  0  0  0  0  0  0  0  0  0  0
  118.7044  123.3855   83.5206 H   0  0  0  0  0  0  0  0  0  0  0  0
  119.1285  122.3945   85.8363 H   0  0  0  0  0  0  0  0  0  0  0  0
  119.3189  122.2531   88.4545 H   0  0  0  0  0  0  0  0  0  0  0  0
  120.9098  121.6452   90.2700 H   0  0  0  0  0  0  0  0  0  0  0  0
  123.3590  121.5618   89.8296 H   0  0  0  0  0  0  0  0  0  0  0  0
  125.1698  122.5497   88.0817 H   0  0  0  0  0  0  0  0  0  0  0  0
  122.6358  122.7018   85.7292 H   0  0  0  0  0  0  0  0  0  0  0  0
  1  2  1  0
  2  3  2  0
  2  4  1  0
  4  5  1  0
  5  6  2  0
  6  7  1  0
  7  8  2  0
  8  9  1  0
  9 10  1  0
 10 11  1  0
 11 12  2  0
 11 13  1  0
 13 14  1  0
 13 15  1  0
 13 16  1  0
  9 17  2  0
 17  5  1  0
  1 18  1  0
  1 19  1  0
  1 20  1  0
  4 21  1  0
  6 22  1  0
  7 23  1  0
  8 24  1  0
 10 25  1  0
 17 26  1  0
M  END
>  <loss>  (3) 
0.4024167060852051

>  <score>  (3) 
6.568098545074463

$$$$
FEPGGPIAJYESNZ-UHFFFAOYSA-N
     RDKit          3D

 26 26  0  0  0  0  0  0  0  0999 V2000
  118.8196  123.9619   84.1467 C   0  0  0  0  0  0  0  0  0  0  0  0
  120.1211  123.7493   84.8799 C   0  0  0  0  0  0  0  0  0  0  0  0
  121.1779  124.1370   84.3982 O   0  0  0  0  0  0  0  0  0  0  0  0
  119.9361  123.1324   86.1036 N   0  0  0  0  0  0  0  0  0  0  0  0
  120.9254  122.6666   86.9969 C   0  0  0  0  0  0  0  0  0  0  0  0
  120.4988  122.3555   88.2940 C   0  0  0  0  0  0  0  0  0  0  0  0
  121.4050  121.8975   89.2474 C   0  0  0  0  0  0  0  0  0  0  0  0
  122.7467  121.7396   88.9078 C   0  0  0  0  0  0  0  0  0  0  0  0
  123.1945  122.0292   87.6124 C   0  0  0  0  0  0  0  0  0  0  0  0
  124.5707  121.8309   87.3677 N   0  0  0  0  0  0  0  0  0  0  0  0
  125.1935  121.4365   86.1776 C   0  0  0  0  0  0  0  0  0  0  0  0
  124.6154  120.8645   85.2552 O   0  0  0  0  0  0  0  0  0  0  0  0
  126.6977  121.8124   86.1091 C   0  0  0  0  0  0  0  0  0  0  0  0
  127.5724  120.5559   85.1751 Cl  0  0  0  0  0  0  0  0  0  0  0  0
  127.3358  121.8428   87.7784 Cl  0  0  0  0  0  0  0  0  0  0  0  0
  126.9441  123.3929   85.3350 Cl  0  0  0  0  0  0  0  0  0  0  0  0
  122.2763  122.4966   86.6631 C   0  0  0  0  0  0  0  0  0  0  0  0
  118.0060  124.0947   84.8750 H   0  0  0  0  0  0  0  0  0  0  0  0
  118.8967  124.8593   83.5153 H   0  0  0  0  0  0  0  0  0  0  0  0
  118.6072  123.0865   83.5153 H   0  0  0  0  0  0  0  0  0  0  0  0
  118.9588  122.9963   86.3990 H   0  0  0  0  0  0  0  0  0  0  0  0
  119.4386  122.4738   88.5622 H   0  0  0  0  0  0  0  0  0  0  0  0
  121.0621  121.6611   90.2656 H   0  0  0  0  0  0  0  0  0  0  0  0
  123.4618  121.3841   89.6644 H   0  0  0  0  0  0  0  0  0  0  0  0
  125.1972  121.9979   88.1680 H   0  0  0  0  0  0  0  0  0  0  0  0
  122.6190  122.7326   85.6449 H   0  0  0  0  0  0  0  0  0  0  0  0
  1  2  1  0
  2  3  2  0
  2  4  1  0
  4  5  1  0
  5  6  2  0
  6  7  1  0
  7  8  2  0
  8  9  1  0
  9 10  1  0
 10 11  1  0
 11 12  2  0
 11 13  1  0
 13 14  1  0
 13 15  1  0
 13 16  1  0
  9 17  2  0
 17  5  1  0
  1 18  1  0
  1 19  1  0
  1 20  1  0
  4 21  1  0
  6 22  1  0
  7 23  1  0
  8 24  1  0
 10 25  1  0
 17 26  1  0
M  END
>  <loss>  (4) 
0.4170738458633423

>  <score>  (4) 
6.565730571746826

$$$$
FEPGGPIAJYESNZ-UHFFFAOYSA-N
     RDKit          3D

 26 26  0  0  0  0  0  0  0  0999 V2000
  118.9989  124.1571   84.1844 C   0  0  0  0  0  0  0  0  0  0  0  0
  120.2682  123.7768   84.9059 C   0  0  0  0  0  0  0  0  0  0  0  0
  121.3402  124.2821   84.5948 O   0  0  0  0  0  0  0  0  0  0  0  0
  120.0394  122.8594   85.9168 N   0  0  0  0  0  0  0  0  0  0  0  0
  120.9044  122.5196   86.9795 C   0  0  0  0  0  0  0  0  0  0  0  0
  120.4733  122.2417   88.2744 C   0  0  0  0  0  0  0  0  0  0  0  0
  121.3982  121.9143   89.2676 C   0  0  0  0  0  0  0  0  0  0  0  0
  122.7633  121.8617   88.9785 C   0  0  0  0  0  0  0  0  0  0  0  0
  123.2176  122.1372   87.6911 C   0  0  0  0  0  0  0  0  0  0  0  0
  124.5753  122.1084   87.3057 N   0  0  0  0  0  0  0  0  0  0  0  0
  125.1355  121.5282   86.1601 C   0  0  0  0  0  0  0  0  0  0  0  0
  124.4780  120.9610   85.2874 O   0  0  0  0  0  0  0  0  0  0  0  0
  126.6758  121.7011   86.0631 C   0  0  0  0  0  0  0  0  0  0  0  0
  127.4774  120.1713   85.6476 Cl  0  0  0  0  0  0  0  0  0  0  0  0
  127.2989  122.2889   87.6370 Cl  0  0  0  0  0  0  0  0  0  0  0  0
  127.0107  122.9297   84.8095 Cl  0  0  0  0  0  0  0  0  0  0  0  0
  122.2792  122.4648   86.6983 C   0  0  0  0  0  0  0  0  0  0  0  0
  118.2154  124.3918   84.9199 H   0  0  0  0  0  0  0  0  0  0  0  0
  119.1857  125.0387   83.5537 H   0  0  0  0  0  0  0  0  0  0  0  0
  118.6702  123.3180   83.5537 H   0  0  0  0  0  0  0  0  0  0  0  0
  119.1343  122.3684   85.8908 H   0  0  0  0  0  0  0  0  0  0  0  0
  119.4007  122.2803   88.5153 H   0  0  0  0  0  0  0  0  0  0  0  0
  121.0483  121.6957   90.2873 H   0  0  0  0  0  0  0  0  0  0  0  0
  123.4819  121.6020   89.7698 H   0  0  0  0  0  0  0  0  0  0  0  0
  125.2360  122.5713   87.9462 H   0  0  0  0  0  0  0  0  0  0  0  0
  122.6288  122.6832   85.6785 H   0  0  0  0  0  0  0  0  0  0  0  0
  1  2  1  0
  2  3  2  0
  2  4  1  0
  4  5  1  0
  5  6  2  0
  6  7  1  0
  7  8  2  0
  8  9  1  0
  9 10  1  0
 10 11  1  0
 11 12  2  0
 11 13  1  0
 13 14  1  0
 13 15  1  0
 13 16  1  0
  9 17  2  0
 17  5  1  0
  1 18  1  0
  1 19  1  0
  1 20  1  0
  4 21  1  0
  6 22  1  0
  7 23  1  0
  8 24  1  0
 10 25  1  0
 17 26  1  0
M  END
>  <loss>  (5) 
0.40952011942863464

>  <score>  (5) 
6.522646427154541

$$$$
FEPGGPIAJYESNZ-UHFFFAOYSA-N
     RDKit          3D

 26 26  0  0  0  0  0  0  0  0999 V2000
  119.2990  124.1391   83.8350 C   0  0  0  0  0  0  0  0  0  0  0  0
  120.4727  123.7003   84.6753 C   0  0  0  0  0  0  0  0  0  0  0  0
  121.6194  123.9688   84.3373 O   0  0  0  0  0  0  0  0  0  0  0  0
  120.0774  122.9761   85.7867 N   0  0  0  0  0  0  0  0  0  0  0  0
  120.8696  122.6021   86.8938 C   0  0  0  0  0  0  0  0  0  0  0  0
  120.3535  122.2923   88.1498 C   0  0  0  0  0  0  0  0  0  0  0  0
  121.2100  121.9306   89.1913 C   0  0  0  0  0  0  0  0  0  0  0  0
  122.5905  121.8737   88.9895 C   0  0  0  0  0  0  0  0  0  0  0  0
  123.1289  122.1779   87.7415 C   0  0  0  0  0  0  0  0  0  0  0  0
  124.5086  122.1483   87.4442 N   0  0  0  0  0  0  0  0  0  0  0  0
  125.1371  121.6057   86.3157 C   0  0  0  0  0  0  0  0  0  0  0  0
  124.5327  121.0820   85.3797 O   0  0  0  0  0  0  0  0  0  0  0  0
  126.6872  121.6848   86.3668 C   0  0  0  0  0  0  0  0  0  0  0  0
  127.1881  122.3251   87.9637 Cl  0  0  0  0  0  0  0  0  0  0  0  0
  127.3278  122.7346   85.0850 Cl  0  0  0  0  0  0  0  0  0  0  0  0
  127.3262  120.0266   86.1786 Cl  0  0  0  0  0  0  0  0  0  0  0  0
  122.2591  122.5416   86.7001 C   0  0  0  0  0  0  0  0  0  0  0  0
  118.4726  124.4480   84.4921 H   0  0  0  0  0  0  0  0  0  0  0  0
  119.5987  124.9859   83.2001 H   0  0  0  0  0  0  0  0  0  0  0  0
  118.9697  123.3033   83.2001 H   0  0  0  0  0  0  0  0  0  0  0  0
  119.0924  122.6757   85.8085 H   0  0  0  0  0  0  0  0  0  0  0  0
  119.2678  122.3327   88.3216 H   0  0  0  0  0  0  0  0  0  0  0  0
  120.7934  121.6882   90.1801 H   0  0  0  0  0  0  0  0  0  0  0  0
  123.2547  121.5878   89.8184 H   0  0  0  0  0  0  0  0  0  0  0  0
  125.1302  122.5791   88.1434 H   0  0  0  0  0  0  0  0  0  0  0  0
  122.6756  122.7843   85.7113 H   0  0  0  0  0  0  0  0  0  0  0  0
  1  2  1  0
  2  3  2  0
  2  4  1  0
  4  5  1  0
  5  6  2  0
  6  7  1  0
  7  8  2  0
  8  9  1  0
  9 10  1  0
 10 11  1  0
 11 12  2  0
 11 13  1  0
 13 14  1  0
 13 15  1  0
 13 16  1  0
  9 17  2  0
 17  5  1  0
  1 18  1  0
  1 19  1  0
  1 20  1  0
  4 21  1  0
  6 22  1  0
  7 23  1  0
  8 24  1  0
 10 25  1  0
 17 26  1  0
M  END
>  <loss>  (6) 
0.4501490592956543

>  <score>  (6) 
6.528809547424316

$$$$
FEPGGPIAJYESNZ-UHFFFAOYSA-N
     RDKit          3D

 26 26  0  0  0  0  0  0  0  0999 V2000
  119.2808  124.1435   83.8393 C   0  0  0  0  0  0  0  0  0  0  0  0
  120.4490  123.6853   84.6769 C   0  0  0  0  0  0  0  0  0  0  0  0
  121.6007  123.8844   84.3074 O   0  0  0  0  0  0  0  0  0  0  0  0
  120.0435  123.0285   85.8243 N   0  0  0  0  0  0  0  0  0  0  0  0
  120.8431  122.6302   86.9171 C   0  0  0  0  0  0  0  0  0  0  0  0
  120.3444  122.3727   88.1929 C   0  0  0  0  0  0  0  0  0  0  0  0
  121.2062  121.9814   89.2183 C   0  0  0  0  0  0  0  0  0  0  0  0
  122.5726  121.8452   88.9738 C   0  0  0  0  0  0  0  0  0  0  0  0
  123.0940  122.0989   87.7011 C   0  0  0  0  0  0  0  0  0  0  0  0
  124.4865  121.9368   87.5384 N   0  0  0  0  0  0  0  0  0  0  0  0
  125.1841  121.5622   86.3841 C   0  0  0  0  0  0  0  0  0  0  0  0
  124.6471  121.0664   85.3923 O   0  0  0  0  0  0  0  0  0  0  0  0
  126.7195  121.7789   86.4799 C   0  0  0  0  0  0  0  0  0  0  0  0
  127.1167  122.5182   88.0618 Cl  0  0  0  0  0  0  0  0  0  0  0  0
  127.5025  120.1780   86.3671 Cl  0  0  0  0  0  0  0  0  0  0  0  0
  127.3019  122.8374   85.1760 Cl  0  0  0  0  0  0  0  0  0  0  0  0
  122.2211  122.4893   86.6810 C   0  0  0  0  0  0  0  0  0  0  0  0
  118.4608  124.4650   84.4983 H   0  0  0  0  0  0  0  0  0  0  0  0
  119.5928  124.9858   83.2044 H   0  0  0  0  0  0  0  0  0  0  0  0
  118.9369  123.3136   83.2044 H   0  0  0  0  0  0  0  0  0  0  0  0
  119.0405  122.8037   85.8891 H   0  0  0  0  0  0  0  0  0  0  0  0
  119.2678  122.4783   88.3922 H   0  0  0  0  0  0  0  0  0  0  0  0
  120.8065  121.7795   90.2230 H   0  0  0  0  0  0  0  0  0  0  0  0
  123.2449  121.5361   89.7878 H   0  0  0  0  0  0  0  0  0  0  0  0
  125.0616  122.1167   88.3738 H   0  0  0  0  0  0  0  0  0  0  0  0
  122.6202  122.6897   85.6758 H   0  0  0  0  0  0  0  0  0  0  0  0
  1  2  1  0
  2  3  2  0
  2  4  1  0
  4  5  1  0
  5  6  2  0
  6  7  1  0
  7  8  2  0
  8  9  1  0
  9 10  1  0
 10 11  1  0
 11 12  2  0
 11 13  1  0
 13 14  1  0
 13 15  1  0
 13 16  1  0
  9 17  2  0
 17  5  1  0
  1 18  1  0
  1 19  1  0
  1 20  1  0
  4 21  1  0
  6 22  1  0
  7 23  1  0
  8 24  1  0
 10 25  1  0
 17 26  1  0
M  END
>  <loss>  (7) 
0.44839465618133545

>  <score>  (7) 
6.493595123291016

$$$$
FEPGGPIAJYESNZ-UHFFFAOYSA-N
     RDKit          3D

 26 26  0  0  0  0  0  0  0  0999 V2000
  119.2988  124.0624   84.0330 C   0  0  0  0  0  0  0  0  0  0  0  0
  120.5012  123.6221   84.8308 C   0  0  0  0  0  0  0  0  0  0  0  0
  121.6367  123.8355   84.4213 O   0  0  0  0  0  0  0  0  0  0  0  0
  120.1444  122.9632   85.9930 N   0  0  0  0  0  0  0  0  0  0  0  0
  120.9877  122.5719   87.0551 C   0  0  0  0  0  0  0  0  0  0  0  0
  120.5383  122.3036   88.3469 C   0  0  0  0  0  0  0  0  0  0  0  0
  121.4412  121.9204   89.3394 C   0  0  0  0  0  0  0  0  0  0  0  0
  122.7997  121.8032   89.0459 C   0  0  0  0  0  0  0  0  0  0  0  0
  123.2719  122.0680   87.7563 C   0  0  0  0  0  0  0  0  0  0  0  0
  124.6597  121.9250   87.5435 N   0  0  0  0  0  0  0  0  0  0  0  0
  125.3176  121.5119   86.3790 C   0  0  0  0  0  0  0  0  0  0  0  0
  124.7699  120.8838   85.4716 O   0  0  0  0  0  0  0  0  0  0  0  0
  126.8287  121.8712   86.3501 C   0  0  0  0  0  0  0  0  0  0  0  0
  127.1885  123.0294   87.6677 Cl  0  0  0  0  0  0  0  0  0  0  0  0
  127.7506  120.3665   86.6234 Cl  0  0  0  0  0  0  0  0  0  0  0  0
  127.2877  122.5948   84.7927 Cl  0  0  0  0  0  0  0  0  0  0  0  0
  122.3581  122.4501   86.7695 C   0  0  0  0  0  0  0  0  0  0  0  0
  118.4916  124.3580   84.7193 H   0  0  0  0  0  0  0  0  0  0  0  0
  119.5728  124.9185   83.3990 H   0  0  0  0  0  0  0  0  0  0  0  0
  118.9552  123.2318   83.3990 H   0  0  0  0  0  0  0  0  0  0  0  0
  119.1463  122.7306   86.0957 H   0  0  0  0  0  0  0  0  0  0  0  0
  119.4682  122.3942   88.5849 H   0  0  0  0  0  0  0  0  0  0  0  0
  121.0803  121.7100   90.3570 H   0  0  0  0  0  0  0  0  0  0  0  0
  123.5046  121.5004   89.8342 H   0  0  0  0  0  0  0  0  0  0  0  0
  125.2643  122.1532   88.3456 H   0  0  0  0  0  0  0  0  0  0  0  0
  122.7184  122.6592   85.7514 H   0  0  0  0  0  0  0  0  0  0  0  0
  1  2  1  0
  2  3  2  0
  2  4  1  0
  4  5  1  0
  5  6  2  0
  6  7  1  0
  7  8  2  0
  8  9  1  0
  9 10  1  0
 10 11  1  0
 11 12  2  0
 11 13  1  0
 13 14  1  0
 13 15  1  0
 13 16  1  0
  9 17  2  0
 17  5  1  0
  1 18  1  0
  1 19  1  0
  1 20  1  0
  4 21  1  0
  6 22  1  0
  7 23  1  0
  8 24  1  0
 10 25  1  0
 17 26  1  0
M  END
>  <loss>  (8) 
0.48061126470565796

>  <score>  (8) 
6.612415313720703

$$$$
FEPGGPIAJYESNZ-UHFFFAOYSA-N
     RDKit          3D

 26 26  0  0  0  0  0  0  0  0999 V2000
  119.2950  124.0289   84.0193 C   0  0  0  0  0  0  0  0  0  0  0  0
  120.5258  123.6454   84.8028 C   0  0  0  0  0  0  0  0  0  0  0  0
  121.6460  123.9068   84.3787 O   0  0  0  0  0  0  0  0  0  0  0  0
  120.2155  122.9752   85.9726 N   0  0  0  0  0  0  0  0  0  0  0  0
  121.1022  122.5742   86.9947 C   0  0  0  0  0  0  0  0  0  0  0  0
  120.5457  122.2753   88.2416 C   0  0  0  0  0  0  0  0  0  0  0  0
  121.3604  121.8724   89.2996 C   0  0  0  0  0  0  0  0  0  0  0  0
  122.7412  121.7639   89.1237 C   0  0  0  0  0  0  0  0  0  0  0  0
  123.3162  122.0583   87.8888 C   0  0  0  0  0  0  0  0  0  0  0  0
  124.6986  121.9773   87.6160 N   0  0  0  0  0  0  0  0  0  0  0  0
  125.3249  121.5017   86.4586 C   0  0  0  0  0  0  0  0  0  0  0  0
  124.7464  120.8566   85.5832 O   0  0  0  0  0  0  0  0  0  0  0  0
  126.8257  121.8871   86.3577 C   0  0  0  0  0  0  0  0  0  0  0  0
  127.2699  122.3334   84.6942 Cl  0  0  0  0  0  0  0  0  0  0  0  0
  127.1186  123.2683   87.4529 Cl  0  0  0  0  0  0  0  0  0  0  0  0
  127.8202  120.4952   86.8825 Cl  0  0  0  0  0  0  0  0  0  0  0  0
  122.4864  122.4630   86.8300 C   0  0  0  0  0  0  0  0  0  0  0  0
  118.4815  124.2822   84.7151 H   0  0  0  0  0  0  0  0  0  0  0  0
  119.5201  124.8994   83.3858 H   0  0  0  0  0  0  0  0  0  0  0  0
  118.9858  123.1844   83.3858 H   0  0  0  0  0  0  0  0  0  0  0  0
  119.2223  122.7420   86.1140 H   0  0  0  0  0  0  0  0  0  0  0  0
  119.4588  122.3583   88.3893 H   0  0  0  0  0  0  0  0  0  0  0  0
  120.9130  121.6390   90.2770 H   0  0  0  0  0  0  0  0  0  0  0  0
  123.3773  121.4450   89.9626 H   0  0  0  0  0  0  0  0  0  0  0  0
  125.3252  122.3102   88.3627 H   0  0  0  0  0  0  0  0  0  0  0  0
  122.9340  122.6969   85.8528 H   0  0  0  0  0  0  0  0  0  0  0  0
  1  2  1  0
  2  3  2  0
  2  4  1  0
  4  5  1  0
  5  6  2  0
  6  7  1  0
  7  8  2  0
  8  9  1  0
  9 10  1  0
 10 11  1  0
 11 12  2  0
 11 13  1  0
 13 14  1  0
 13 15  1  0
 13 16  1  0
  9 17  2  0
 17  5  1  0
  1 18  1  0
  1 19  1  0
  1 20  1  0
  4 21  1  0
  6 22  1  0
  7 23  1  0
  8 24  1  0
 10 25  1  0
 17 26  1  0
M  END
>  <loss>  (9) 
0.4798879325389862

>  <score>  (9) 
6.577550411224365

$$$$
FEPGGPIAJYESNZ-UHFFFAOYSA-N
     RDKit          3D

 26 26  0  0  0  0  0  0  0  0999 V2000
  119.2745  124.0088   84.0176 C   0  0  0  0  0  0  0  0  0  0  0  0
  120.4847  123.6580   84.8473 C   0  0  0  0  0  0  0  0  0  0  0  0
  121.6148  123.9060   84.4424 O   0  0  0  0  0  0  0  0  0  0  0  0
  120.1425  123.0327   86.0323 N   0  0  0  0  0  0  0  0  0  0  0  0
  121.0071  122.6134   87.0661 C   0  0  0  0  0  0  0  0  0  0  0  0
  120.5851  122.3172   88.3611 C   0  0  0  0  0  0  0  0  0  0  0  0
  121.5079  121.9072   89.3242 C   0  0  0  0  0  0  0  0  0  0  0  0
  122.8589  121.7910   88.9980 C   0  0  0  0  0  0  0  0  0  0  0  0
  123.3038  122.0835   87.7047 C   0  0  0  0  0  0  0  0  0  0  0  0
  124.6859  121.9394   87.4579 N   0  0  0  0  0  0  0  0  0  0  0  0
  125.3126  121.4757   86.2953 C   0  0  0  0  0  0  0  0  0  0  0  0
  124.7448  120.7978   85.4373 O   0  0  0  0  0  0  0  0  0  0  0  0
  126.8179  121.8483   86.2017 C   0  0  0  0  0  0  0  0  0  0  0  0
  127.1883  123.1263   87.4002 Cl  0  0  0  0  0  0  0  0  0  0  0  0
  127.7653  120.3858   86.5913 Cl  0  0  0  0  0  0  0  0  0  0  0  0
  127.2357  122.4319   84.5754 Cl  0  0  0  0  0  0  0  0  0  0  0  0
  122.3703  122.4923   86.7475 C   0  0  0  0  0  0  0  0  0  0  0  0
  118.4325  124.2528   84.6821 H   0  0  0  0  0  0  0  0  0  0  0  0
  119.5043  124.8773   83.3829 H   0  0  0  0  0  0  0  0  0  0  0  0
  119.0043  123.1520   83.3829 H   0  0  0  0  0  0  0  0  0  0  0  0
  119.1390  122.8518   86.1776 H   0  0  0  0  0  0  0  0  0  0  0  0
  119.5210  122.4069   88.6248 H   0  0  0  0  0  0  0  0  0  0  0  0
  121.1685  121.6749   90.3444 H   0  0  0  0  0  0  0  0  0  0  0  0
  123.5796  121.4670   89.7632 H   0  0  0  0  0  0  0  0  0  0  0  0
  125.3119  122.2094   88.2300 H   0  0  0  0  0  0  0  0  0  0  0  0
  122.7090  122.7232   85.7267 H   0  0  0  0  0  0  0  0  0  0  0  0
  1  2  1  0
  2  3  2  0
  2  4  1  0
  4  5  1  0
  5  6  2  0
  6  7  1  0
  7  8  2  0
  8  9  1  0
  9 10  1  0
 10 11  1  0
 11 12  2  0
 11 13  1  0
 13 14  1  0
 13 15  1  0
 13 16  1  0
  9 17  2  0
 17  5  1  0
  1 18  1  0
  1 19  1  0
  1 20  1  0
  4 21  1  0
  6 22  1  0
  7 23  1  0
  8 24  1  0
 10 25  1  0
 17 26  1  0
M  END
>  <loss>  (10) 
0.48559027910232544

>  <score>  (10) 
6.600308418273926

$$$$
FEPGGPIAJYESNZ-UHFFFAOYSA-N
     RDKit          3D

 26 26  0  0  0  0  0  0  0  0999 V2000
  119.2247  124.0657   83.8218 C   0  0  0  0  0  0  0  0  0  0  0  0
  120.4385  123.7079   84.6433 C   0  0  0  0  0  0  0  0  0  0  0  0
  121.5676  123.9563   84.2351 O   0  0  0  0  0  0  0  0  0  0  0  0
  120.1031  123.0751   85.8268 N   0  0  0  0  0  0  0  0  0  0  0  0
  120.9750  122.6553   86.8542 C   0  0  0  0  0  0  0  0  0  0  0  0
  120.4037  122.3610   88.0955 C   0  0  0  0  0  0  0  0  0  0  0  0
  121.2032  121.9405   89.1583 C   0  0  0  0  0  0  0  0  0  0  0  0
  122.5834  121.8096   88.9927 C   0  0  0  0  0  0  0  0  0  0  0  0
  123.1730  122.0991   87.7635 C   0  0  0  0  0  0  0  0  0  0  0  0
  124.5559  121.9960   87.5012 N   0  0  0  0  0  0  0  0  0  0  0  0
  125.1834  121.5824   86.3208 C   0  0  0  0  0  0  0  0  0  0  0  0
  124.5750  121.2293   85.3098 O   0  0  0  0  0  0  0  0  0  0  0  0
  126.7338  121.6351   86.3867 C   0  0  0  0  0  0  0  0  0  0  0  0
  127.4200  122.3762   84.9226 Cl  0  0  0  0  0  0  0  0  0  0  0  0
  127.1960  122.5931   87.8226 Cl  0  0  0  0  0  0  0  0  0  0  0  0
  127.3656  119.9698   86.5586 Cl  0  0  0  0  0  0  0  0  0  0  0  0
  122.3584  122.5217   86.6999 C   0  0  0  0  0  0  0  0  0  0  0  0
  118.3881  124.3123   84.4921 H   0  0  0  0  0  0  0  0  0  0  0  0
  119.4545  124.9343   83.1873 H   0  0  0  0  0  0  0  0  0  0  0  0
  118.9466  123.2113   83.1873 H   0  0  0  0  0  0  0  0  0  0  0  0
  119.1011  122.8886   85.9755 H   0  0  0  0  0  0  0  0  0  0  0  0
  119.3173  122.4617   88.2351 H   0  0  0  0  0  0  0  0  0  0  0  0
  120.7443  121.7109   90.1312 H   0  0  0  0  0  0  0  0  0  0  0  0
  123.2075  121.4770   89.8352 H   0  0  0  0  0  0  0  0  0  0  0  0
  125.1819  122.2582   88.2760 H   0  0  0  0  0  0  0  0  0  0  0  0
  122.8175  122.7518   85.7271 H   0  0  0  0  0  0  0  0  0  0  0  0
  1  2  1  0
  2  3  2  0
  2  4  1  0
  4  5  1  0
  5  6  2  0
  6  7  1  0
  7  8  2  0
  8  9  1  0
  9 10  1  0
 10 11  1  0
 11 12  2  0
 11 13  1  0
 13 14  1  0
 13 15  1  0
 13 16  1  0
  9 17  2  0
 17  5  1  0
  1 18  1  0
  1 19  1  0
  1 20  1  0
  4 21  1  0
  6 22  1  0
  7 23  1  0
  8 24  1  0
 10 25  1  0
 17 26  1  0
M  END
>  <loss>  (11) 
0.4602069854736328

>  <score>  (11) 
6.469923496246338

$$$$
FEPGGPIAJYESNZ-UHFFFAOYSA-N
     RDKit          3D

 26 26  0  0  0  0  0  0  0  0999 V2000
  119.2820  124.0206   84.0398 C   0  0  0  0  0  0  0  0  0  0  0  0
  120.4946  123.6375   84.8517 C   0  0  0  0  0  0  0  0  0  0  0  0
  121.6189  123.9625   84.4887 O   0  0  0  0  0  0  0  0  0  0  0  0
  120.1561  122.9405   85.9986 N   0  0  0  0  0  0  0  0  0  0  0  0
  121.0109  122.5608   87.0561 C   0  0  0  0  0  0  0  0  0  0  0  0
  120.5678  122.2386   88.3365 C   0  0  0  0  0  0  0  0  0  0  0  0
  121.4832  121.8736   89.3254 C   0  0  0  0  0  0  0  0  0  0  0  0
  122.8506  121.8273   89.0465 C   0  0  0  0  0  0  0  0  0  0  0  0
  123.3168  122.1467   87.7735 C   0  0  0  0  0  0  0  0  0  0  0  0
  124.6778  122.1275   87.3991 N   0  0  0  0  0  0  0  0  0  0  0  0
  125.2548  121.5270   86.2725 C   0  0  0  0  0  0  0  0  0  0  0  0
  124.6183  120.8884   85.4342 O   0  0  0  0  0  0  0  0  0  0  0  0
  126.7828  121.7750   86.1476 C   0  0  0  0  0  0  0  0  0  0  0  0
  127.7081  120.6755   87.1919 Cl  0  0  0  0  0  0  0  0  0  0  0  0
  127.1400  123.4698   86.6065 Cl  0  0  0  0  0  0  0  0  0  0  0  0
  127.2394  121.5268   84.4378 Cl  0  0  0  0  0  0  0  0  0  0  0  0
  122.3879  122.5119   86.7849 C   0  0  0  0  0  0  0  0  0  0  0  0
  118.4552  124.2819   84.7166 H   0  0  0  0  0  0  0  0  0  0  0  0
  119.5240  124.8861   83.4054 H   0  0  0  0  0  0  0  0  0  0  0  0
  118.9828  123.1733   83.4054 H   0  0  0  0  0  0  0  0  0  0  0  0
  119.1672  122.6675   86.0912 H   0  0  0  0  0  0  0  0  0  0  0  0
  119.4932  122.2718   88.5694 H   0  0  0  0  0  0  0  0  0  0  0  0
  121.1238  121.6202   90.3338 H   0  0  0  0  0  0  0  0  0  0  0  0
  123.5616  121.5376   89.8342 H   0  0  0  0  0  0  0  0  0  0  0  0
  125.3269  122.6154   88.0327 H   0  0  0  0  0  0  0  0  0  0  0  0
  122.7470  122.7651   85.7765 H   0  0  0  0  0  0  0  0  0  0  0  0
  1  2  1  0
  2  3  2  0
  2  4  1  0
  4  5  1  0
  5  6  2  0
  6  7  1  0
  7  8  2  0
  8  9  1  0
  9 10  1  0
 10 11  1  0
 11 12  2  0
 11 13  1  0
 13 14  1  0
 13 15  1  0
 13 16  1  0
  9 17  2  0
 17  5  1  0
  1 18  1  0
  1 19  1  0
  1 20  1  0
  4 21  1  0
  6 22  1  0
  7 23  1  0
  8 24  1  0
 10 25  1  0
 17 26  1  0
M  END
>  <loss>  (12) 
0.48078465461730957

>  <score>  (12) 
6.56696891784668

$$$$
FEPGGPIAJYESNZ-UHFFFAOYSA-N
     RDKit          3D

 26 26  0  0  0  0  0  0  0  0999 V2000
  119.3094  124.1212   83.8106 C   0  0  0  0  0  0  0  0  0  0  0  0
  120.4752  123.6834   84.6625 C   0  0  0  0  0  0  0  0  0  0  0  0
  121.6249  123.9540   84.3364 O   0  0  0  0  0  0  0  0  0  0  0  0
  120.0666  123.0061   85.7984 N   0  0  0  0  0  0  0  0  0  0  0  0
  120.8614  122.6176   86.8986 C   0  0  0  0  0  0  0  0  0  0  0  0
  120.3476  122.2814   88.1487 C   0  0  0  0  0  0  0  0  0  0  0  0
  121.2066  121.9084   89.1840 C   0  0  0  0  0  0  0  0  0  0  0  0
  122.5878  121.8678   88.9822 C   0  0  0  0  0  0  0  0  0  0  0  0
  123.1242  122.2012   87.7409 C   0  0  0  0  0  0  0  0  0  0  0  0
  124.5042  122.1887   87.4438 N   0  0  0  0  0  0  0  0  0  0  0  0
  125.1475  121.5857   86.3551 C   0  0  0  0  0  0  0  0  0  0  0  0
  124.5539  121.0668   85.4095 O   0  0  0  0  0  0  0  0  0  0  0  0
  126.6969  121.6660   86.4236 C   0  0  0  0  0  0  0  0  0  0  0  0
  127.2518  122.1673   88.0350 Cl  0  0  0  0  0  0  0  0  0  0  0  0
  127.2763  122.8436   85.2037 Cl  0  0  0  0  0  0  0  0  0  0  0  0
  127.3467  120.0495   86.0262 Cl  0  0  0  0  0  0  0  0  0  0  0  0
  122.2516  122.5744   86.7052 C   0  0  0  0  0  0  0  0  0  0  0  0
  118.4779  124.4334   84.4596 H   0  0  0  0  0  0  0  0  0  0  0  0
  119.6159  124.9654   83.1756 H   0  0  0  0  0  0  0  0  0  0  0  0
  118.9844  123.2838   83.1756 H   0  0  0  0  0  0  0  0  0  0  0  0
  119.0683  122.7571   85.8465 H   0  0  0  0  0  0  0  0  0  0  0  0
  119.2615  122.3100   88.3208 H   0  0  0  0  0  0  0  0  0  0  0  0
  120.7917  121.6440   90.1678 H   0  0  0  0  0  0  0  0  0  0  0  0
  123.2540  121.5717   89.8060 H   0  0  0  0  0  0  0  0  0  0  0  0
  125.1137  122.6843   88.1100 H   0  0  0  0  0  0  0  0  0  0  0  0
  122.6664  122.8386   85.7212 H   0  0  0  0  0  0  0  0  0  0  0  0
  1  2  1  0
  2  3  2  0
  2  4  1  0
  4  5  1  0
  5  6  2  0
  6  7  1  0
  7  8  2  0
  8  9  1  0
  9 10  1  0
 10 11  1  0
 11 12  2  0
 11 13  1  0
 13 14  1  0
 13 15  1  0
 13 16  1  0
  9 17  2  0
 17  5  1  0
  1 18  1  0
  1 19  1  0
  1 20  1  0
  4 21  1  0
  6 22  1  0
  7 23  1  0
  8 24  1  0
 10 25  1  0
 17 26  1  0
M  END
>  <loss>  (13) 
0.4502480924129486

>  <score>  (13) 
6.405369281768799

$$$$
FEPGGPIAJYESNZ-UHFFFAOYSA-N
     RDKit          3D

 26 26  0  0  0  0  0  0  0  0999 V2000
  119.1758  124.0060   84.0447 C   0  0  0  0  0  0  0  0  0  0  0  0
  120.4337  123.6375   84.7921 C   0  0  0  0  0  0  0  0  0  0  0  0
  121.5351  123.8592   84.3053 O   0  0  0  0  0  0  0  0  0  0  0  0
  120.1624  123.0911   86.0331 N   0  0  0  0  0  0  0  0  0  0  0  0
  121.0857  122.6374   87.0002 C   0  0  0  0  0  0  0  0  0  0  0  0
  120.5741  122.3748   88.2771 C   0  0  0  0  0  0  0  0  0  0  0  0
  121.4108  121.9323   89.2988 C   0  0  0  0  0  0  0  0  0  0  0  0
  122.7679  121.7414   89.0485 C   0  0  0  0  0  0  0  0  0  0  0  0
  123.3001  121.9822   87.7752 C   0  0  0  0  0  0  0  0  0  0  0  0
  124.6849  121.7533   87.6230 N   0  0  0  0  0  0  0  0  0  0  0  0
  125.3917  121.4478   86.4539 C   0  0  0  0  0  0  0  0  0  0  0  0
  124.8983  120.8826   85.4794 O   0  0  0  0  0  0  0  0  0  0  0  0
  126.8714  121.9146   86.4821 C   0  0  0  0  0  0  0  0  0  0  0  0
  127.0123  123.3468   87.5523 Cl  0  0  0  0  0  0  0  0  0  0  0  0
  127.3338  122.3850   84.8209 Cl  0  0  0  0  0  0  0  0  0  0  0  0
  127.9519  120.6344   87.0747 Cl  0  0  0  0  0  0  0  0  0  0  0  0
  122.4512  122.4344   86.7566 C   0  0  0  0  0  0  0  0  0  0  0  0
  118.3771  124.2399   84.7639 H   0  0  0  0  0  0  0  0  0  0  0  0
  119.3691  124.8852   83.4126 H   0  0  0  0  0  0  0  0  0  0  0  0
  118.8642  123.1613   83.4126 H   0  0  0  0  0  0  0  0  0  0  0  0
  119.1666  123.0045   86.2819 H   0  0  0  0  0  0  0  0  0  0  0  0
  119.5017  122.5194   88.4749 H   0  0  0  0  0  0  0  0  0  0  0  0
  121.0014  121.7342   90.3003 H   0  0  0  0  0  0  0  0  0  0  0  0
  123.4280  121.3982   89.8587 H   0  0  0  0  0  0  0  0  0  0  0  0
  125.2477  121.8196   88.4831 H   0  0  0  0  0  0  0  0  0  0  0  0
  122.8605  122.6323   85.7550 H   0  0  0  0  0  0  0  0  0  0  0  0
  1  2  1  0
  2  3  2  0
  2  4  1  0
  4  5  1  0
  5  6  2  0
  6  7  1  0
  7  8  2  0
  8  9  1  0
  9 10  1  0
 10 11  1  0
 11 12  2  0
 11 13  1  0
 13 14  1  0
 13 15  1  0
 13 16  1  0
  9 17  2  0
 17  5  1  0
  1 18  1  0
  1 19  1  0
  1 20  1  0
  4 21  1  0
  6 22  1  0
  7 23  1  0
  8 24  1  0
 10 25  1  0
 17 26  1  0
M  END
>  <loss>  (14) 
0.4878084659576416

>  <score>  (14) 
6.574400901794434

$$$$
FEPGGPIAJYESNZ-UHFFFAOYSA-N
     RDKit          3D

 26 26  0  0  0  0  0  0  0  0999 V2000
  119.2941  124.0901   84.0599 C   0  0  0  0  0  0  0  0  0  0  0  0
  120.5083  123.6371   84.8325 C   0  0  0  0  0  0  0  0  0  0  0  0
  121.6367  123.9125   84.4426 O   0  0  0  0  0  0  0  0  0  0  0  0
  120.1675  122.9409   85.9793 N   0  0  0  0  0  0  0  0  0  0  0  0
  121.0208  122.5595   87.0374 C   0  0  0  0  0  0  0  0  0  0  0  0
  120.5767  122.2444   88.3193 C   0  0  0  0  0  0  0  0  0  0  0  0
  121.4906  121.8771   89.3087 C   0  0  0  0  0  0  0  0  0  0  0  0
  122.8576  121.8214   89.0288 C   0  0  0  0  0  0  0  0  0  0  0  0
  123.3247  122.1338   87.7545 C   0  0  0  0  0  0  0  0  0  0  0  0
  124.6852  122.1050   87.3791 N   0  0  0  0  0  0  0  0  0  0  0  0
  125.2580  121.4954   86.2552 C   0  0  0  0  0  0  0  0  0  0  0  0
  124.6168  120.8584   85.4193 O   0  0  0  0  0  0  0  0  0  0  0  0
  126.7879  121.7311   86.1298 C   0  0  0  0  0  0  0  0  0  0  0  0
  127.3601  121.4247   84.4762 Cl  0  0  0  0  0  0  0  0  0  0  0  0
  127.6430  120.6400   87.2651 Cl  0  0  0  0  0  0  0  0  0  0  0  0
  127.1201  123.4255   86.5900 Cl  0  0  0  0  0  0  0  0  0  0  0  0
  122.3973  122.5013   86.7654 C   0  0  0  0  0  0  0  0  0  0  0  0
  118.5014  124.3858   84.7628 H   0  0  0  0  0  0  0  0  0  0  0  0
  119.5618  124.9488   83.4267 H   0  0  0  0  0  0  0  0  0  0  0  0
  118.9339  123.2658   83.4267 H   0  0  0  0  0  0  0  0  0  0  0  0
  119.1780  122.6700   86.0712 H   0  0  0  0  0  0  0  0  0  0  0  0
  119.5026  122.2849   88.5528 H   0  0  0  0  0  0  0  0  0  0  0  0
  121.1305  121.6293   90.3181 H   0  0  0  0  0  0  0  0  0  0  0  0
  123.5674  121.5301   89.8171 H   0  0  0  0  0  0  0  0  0  0  0  0
  125.3376  122.5925   88.0096 H   0  0  0  0  0  0  0  0  0  0  0  0
  122.7572  122.7490   85.7558 H   0  0  0  0  0  0  0  0  0  0  0  0
  1  2  1  0
  2  3  2  0
  2  4  1  0
  4  5  1  0
  5  6  2  0
  6  7  1  0
  7  8  2  0
  8  9  1  0
  9 10  1  0
 10 11  1  0
 11 12  2  0
 11 13  1  0
 13 14  1  0
 13 15  1  0
 13 16  1  0
  9 17  2  0
 17  5  1  0
  1 18  1  0
  1 19  1  0
  1 20  1  0
  4 21  1  0
  6 22  1  0
  7 23  1  0
  8 24  1  0
 10 25  1  0
 17 26  1  0
M  END
>  <loss>  (15) 
0.48385921120643616

>  <score>  (15) 
6.547200679779053

$$$$
FEPGGPIAJYESNZ-UHFFFAOYSA-N
     RDKit          3D

 26 26  0  0  0  0  0  0  0  0999 V2000
  119.1299  123.9973   84.0525 C   0  0  0  0  0  0  0  0  0  0  0  0
  120.3961  123.6290   84.7860 C   0  0  0  0  0  0  0  0  0  0  0  0
  121.4918  123.8405   84.2822 O   0  0  0  0  0  0  0  0  0  0  0  0
  120.1389  123.0951   86.0354 N   0  0  0  0  0  0  0  0  0  0  0  0
  121.0732  122.6477   86.9950 C   0  0  0  0  0  0  0  0  0  0  0  0
  120.5746  122.3859   88.2772 C   0  0  0  0  0  0  0  0  0  0  0  0
  121.4228  121.9494   89.2920 C   0  0  0  0  0  0  0  0  0  0  0  0
  122.7782  121.7636   89.0295 C   0  0  0  0  0  0  0  0  0  0  0  0
  123.2975  122.0037   87.7507 C   0  0  0  0  0  0  0  0  0  0  0  0
  124.6817  121.7802   87.5861 N   0  0  0  0  0  0  0  0  0  0  0  0
  125.3724  121.4276   86.4206 C   0  0  0  0  0  0  0  0  0  0  0  0
  124.8681  120.8157   85.4805 O   0  0  0  0  0  0  0  0  0  0  0  0
  126.8487  121.9058   86.4041 C   0  0  0  0  0  0  0  0  0  0  0  0
  127.9198  120.5084   86.7452 Cl  0  0  0  0  0  0  0  0  0  0  0  0
  127.0501  123.1202   87.7000 Cl  0  0  0  0  0  0  0  0  0  0  0  0
  127.2918  122.6119   84.8348 Cl  0  0  0  0  0  0  0  0  0  0  0  0
  122.4372  122.4498   86.7391 C   0  0  0  0  0  0  0  0  0  0  0  0
  118.3382  124.2276   84.7806 H   0  0  0  0  0  0  0  0  0  0  0  0
  119.3152  124.8788   83.4211 H   0  0  0  0  0  0  0  0  0  0  0  0
  118.8134  123.1540   83.4211 H   0  0  0  0  0  0  0  0  0  0  0  0
  119.1462  123.0141   86.2977 H   0  0  0  0  0  0  0  0  0  0  0  0
  119.5035  122.5264   88.4847 H   0  0  0  0  0  0  0  0  0  0  0  0
  121.0235  121.7519   90.2978 H   0  0  0  0  0  0  0  0  0  0  0  0
  123.4473  121.4251   89.8343 H   0  0  0  0  0  0  0  0  0  0  0  0
  125.2578  121.8909   88.4328 H   0  0  0  0  0  0  0  0  0  0  0  0
  122.8363  122.6471   85.7332 H   0  0  0  0  0  0  0  0  0  0  0  0
  1  2  1  0
  2  3  2  0
  2  4  1  0
  4  5  1  0
  5  6  2  0
  6  7  1  0
  7  8  2  0
  8  9  1  0
  9 10  1  0
 10 11  1  0
 11 12  2  0
 11 13  1  0
 13 14  1  0
 13 15  1  0
 13 16  1  0
  9 17  2  0
 17  5  1  0
  1 18  1  0
  1 19  1  0
  1 20  1  0
  4 21  1  0
  6 22  1  0
  7 23  1  0
  8 24  1  0
 10 25  1  0
 17 26  1  0
M  END
>  <loss>  (16) 
0.49222275614738464

>  <score>  (16) 
6.570366859436035

$$$$
FEPGGPIAJYESNZ-UHFFFAOYSA-N
     RDKit          3D

 26 26  0  0  0  0  0  0  0  0999 V2000
  119.2812  124.0195   84.0252 C   0  0  0  0  0  0  0  0  0  0  0  0
  120.4948  123.6538   84.8435 C   0  0  0  0  0  0  0  0  0  0  0  0
  121.6198  123.9575   84.4646 O   0  0  0  0  0  0  0  0  0  0  0  0
  120.1606  122.9486   85.9866 N   0  0  0  0  0  0  0  0  0  0  0  0
  121.0161  122.5751   87.0458 C   0  0  0  0  0  0  0  0  0  0  0  0
  120.5750  122.2723   88.3316 C   0  0  0  0  0  0  0  0  0  0  0  0
  121.4907  121.9106   89.3214 C   0  0  0  0  0  0  0  0  0  0  0  0
  122.8565  121.8468   89.0374 C   0  0  0  0  0  0  0  0  0  0  0  0
  123.3204  122.1439   87.7583 C   0  0  0  0  0  0  0  0  0  0  0  0
  124.6796  122.1071   87.3789 N   0  0  0  0  0  0  0  0  0  0  0  0
  125.2431  121.5109   86.2431 C   0  0  0  0  0  0  0  0  0  0  0  0
  124.6010  120.8530   85.4242 O   0  0  0  0  0  0  0  0  0  0  0  0
  126.7776  121.7188   86.1262 C   0  0  0  0  0  0  0  0  0  0  0  0
  127.0986  123.1157   85.0509 Cl  0  0  0  0  0  0  0  0  0  0  0  0
  127.5817  120.2761   85.4720 Cl  0  0  0  0  0  0  0  0  0  0  0  0
  127.4063  122.0847   87.7584 Cl  0  0  0  0  0  0  0  0  0  0  0  0
  122.3913  122.5077   86.7694 C   0  0  0  0  0  0  0  0  0  0  0  0
  118.4477  124.2707   84.6976 H   0  0  0  0  0  0  0  0  0  0  0  0
  119.5147  124.8872   83.3906 H   0  0  0  0  0  0  0  0  0  0  0  0
  118.9964  123.1673   83.3906 H   0  0  0  0  0  0  0  0  0  0  0  0
  119.1747  122.6636   86.0747 H   0  0  0  0  0  0  0  0  0  0  0  0
  119.5017  122.3182   88.5681 H   0  0  0  0  0  0  0  0  0  0  0  0
  121.1331  121.6738   90.3343 H   0  0  0  0  0  0  0  0  0  0  0  0
  123.5679  121.5610   89.8262 H   0  0  0  0  0  0  0  0  0  0  0  0
  125.3387  122.5768   88.0159 H   0  0  0  0  0  0  0  0  0  0  0  0
  122.7487  122.7448   85.7565 H   0  0  0  0  0  0  0  0  0  0  0  0
  1  2  1  0
  2  3  2  0
  2  4  1  0
  4  5  1  0
  5  6  2  0
  6  7  1  0
  7  8  2  0
  8  9  1  0
  9 10  1  0
 10 11  1  0
 11 12  2  0
 11 13  1  0
 13 14  1  0
 13 15  1  0
 13 16  1  0
  9 17  2  0
 17  5  1  0
  1 18  1  0
  1 19  1  0
  1 20  1  0
  4 21  1  0
  6 22  1  0
  7 23  1  0
  8 24  1  0
 10 25  1  0
 17 26  1  0
M  END
>  <loss>  (17) 
0.48498809337615967

>  <score>  (17) 
6.499876976013184

$$$$
FEPGGPIAJYESNZ-UHFFFAOYSA-N
     RDKit          3D

 26 26  0  0  0  0  0  0  0  0999 V2000
  119.1968  123.9808   84.0489 C   0  0  0  0  0  0  0  0  0  0  0  0
  120.4540  123.6518   84.8150 C   0  0  0  0  0  0  0  0  0  0  0  0
  121.5580  123.9166   84.3521 O   0  0  0  0  0  0  0  0  0  0  0  0
  120.1863  123.0233   86.0180 N   0  0  0  0  0  0  0  0  0  0  0  0
  121.1147  122.6094   86.9970 C   0  0  0  0  0  0  0  0  0  0  0  0
  120.6151  122.3277   88.2717 C   0  0  0  0  0  0  0  0  0  0  0  0
  121.4733  121.9136   89.2902 C   0  0  0  0  0  0  0  0  0  0  0  0
  122.8413  121.7767   89.0466 C   0  0  0  0  0  0  0  0  0  0  0  0
  123.3598  122.0536   87.7829 C   0  0  0  0  0  0  0  0  0  0  0  0
  124.7250  121.9437   87.4423 N   0  0  0  0  0  0  0  0  0  0  0  0
  125.2834  121.4502   86.2579 C   0  0  0  0  0  0  0  0  0  0  0  0
  124.6323  120.8869   85.3771 O   0  0  0  0  0  0  0  0  0  0  0  0
  126.8105  121.7031   86.1351 C   0  0  0  0  0  0  0  0  0  0  0  0
  127.5325  120.7018   84.8545 Cl  0  0  0  0  0  0  0  0  0  0  0  0
  127.0582  123.4329   85.7619 Cl  0  0  0  0  0  0  0  0  0  0  0  0
  127.5913  121.3178   87.6984 Cl  0  0  0  0  0  0  0  0  0  0  0  0
  122.4865  122.4698   86.7644 C   0  0  0  0  0  0  0  0  0  0  0  0
  118.3817  124.1940   84.7562 H   0  0  0  0  0  0  0  0  0  0  0  0
  119.3733  124.8630   83.4160 H   0  0  0  0  0  0  0  0  0  0  0  0
  118.9185  123.1252   83.4160 H   0  0  0  0  0  0  0  0  0  0  0  0
  119.1944  122.8357   86.2228 H   0  0  0  0  0  0  0  0  0  0  0  0
  119.5388  122.4332   88.4728 H   0  0  0  0  0  0  0  0  0  0  0  0
  121.0706  121.6939   90.2900 H   0  0  0  0  0  0  0  0  0  0  0  0
  123.5119  121.4491   89.8546 H   0  0  0  0  0  0  0  0  0  0  0  0
  125.3945  122.2673   88.1551 H   0  0  0  0  0  0  0  0  0  0  0  0
  122.8894  122.6901   85.7648 H   0  0  0  0  0  0  0  0  0  0  0  0
  1  2  1  0
  2  3  2  0
  2  4  1  0
  4  5  1  0
  5  6  2  0
  6  7  1  0
  7  8  2  0
  8  9  1  0
  9 10  1  0
 10 11  1  0
 11 12  2  0
 11 13  1  0
 13 14  1  0
 13 15  1  0
 13 16  1  0
  9 17  2  0
 17  5  1  0
  1 18  1  0
  1 19  1  0
  1 20  1  0
  4 21  1  0
  6 22  1  0
  7 23  1  0
  8 24  1  0
 10 25  1  0
 17 26  1  0
M  END
>  <loss>  (18) 
0.48269277811050415

>  <score>  (18) 
6.474152088165283

$$$$
FEPGGPIAJYESNZ-UHFFFAOYSA-N
     RDKit          3D

 26 26  0  0  0  0  0  0  0  0999 V2000
  119.0215  124.0295   83.8780 C   0  0  0  0  0  0  0  0  0  0  0  0
  120.2812  123.6898   84.6360 C   0  0  0  0  0  0  0  0  0  0  0  0
  121.3814  123.8889   84.1369 O   0  0  0  0  0  0  0  0  0  0  0  0
  120.0128  123.1957   85.8994 N   0  0  0  0  0  0  0  0  0  0  0  0
  120.9353  122.7241   86.8588 C   0  0  0  0  0  0  0  0  0  0  0  0
  120.4288  122.4686   88.1391 C   0  0  0  0  0  0  0  0  0  0  0  0
  121.2654  122.0096   89.1537 C   0  0  0  0  0  0  0  0  0  0  0  0
  122.6168  121.7950   88.8928 C   0  0  0  0  0  0  0  0  0  0  0  0
  123.1435  122.0284   87.6158 C   0  0  0  0  0  0  0  0  0  0  0  0
  124.5228  121.7751   87.4527 N   0  0  0  0  0  0  0  0  0  0  0  0
  125.2131  121.4464   86.2799 C   0  0  0  0  0  0  0  0  0  0  0  0
  124.6793  120.9794   85.2753 O   0  0  0  0  0  0  0  0  0  0  0  0
  126.7333  121.7513   86.3473 C   0  0  0  0  0  0  0  0  0  0  0  0
  127.6095  120.5903   85.2981 Cl  0  0  0  0  0  0  0  0  0  0  0  0
  127.2680  121.5225   88.0374 Cl  0  0  0  0  0  0  0  0  0  0  0  0
  127.0943  123.4076   85.8142 Cl  0  0  0  0  0  0  0  0  0  0  0  0
  122.2951  122.4972   86.6045 C   0  0  0  0  0  0  0  0  0  0  0  0
  118.2124  124.2477   84.5905 H   0  0  0  0  0  0  0  0  0  0  0  0
  119.2007  124.9113   83.2454 H   0  0  0  0  0  0  0  0  0  0  0  0
  118.7331  123.1770   83.2454 H   0  0  0  0  0  0  0  0  0  0  0  0
  119.0204  123.1684   86.1737 H   0  0  0  0  0  0  0  0  0  0  0  0
  119.3607  122.6318   88.3454 H   0  0  0  0  0  0  0  0  0  0  0  0
  120.8601  121.8171   90.1581 H   0  0  0  0  0  0  0  0  0  0  0  0
  123.2770  121.4388   89.6974 H   0  0  0  0  0  0  0  0  0  0  0  0
  125.0950  121.8405   88.3066 H   0  0  0  0  0  0  0  0  0  0  0  0
  122.7002  122.6895   85.6000 H   0  0  0  0  0  0  0  0  0  0  0  0
  1  2  1  0
  2  3  2  0
  2  4  1  0
  4  5  1  0
  5  6  2  0
  6  7  1  0
  7  8  2  0
  8  9  1  0
  9 10  1  0
 10 11  1  0
 11 12  2  0
 11 13  1  0
 13 14  1  0
 13 15  1  0
 13 16  1  0
  9 17  2  0
 17  5  1  0
  1 18  1  0
  1 19  1  0
  1 20  1  0
  4 21  1  0
  6 22  1  0
  7 23  1  0
  8 24  1  0
 10 25  1  0
 17 26  1  0
M  END
>  <loss>  (19) 
0.4564492404460907

>  <score>  (19) 
6.287930488586426

$$$$
FEPGGPIAJYESNZ-UHFFFAOYSA-N
     RDKit          3D

 26 26  0  0  0  0  0  0  0  0999 V2000
  119.2418  124.0237   84.0533 C   0  0  0  0  0  0  0  0  0  0  0  0
  120.4664  123.6579   84.8552 C   0  0  0  0  0  0  0  0  0  0  0  0
  121.5861  123.9622   84.4614 O   0  0  0  0  0  0  0  0  0  0  0  0
  120.1477  122.9518   86.0022 N   0  0  0  0  0  0  0  0  0  0  0  0
  121.0193  122.5696   87.0449 C   0  0  0  0  0  0  0  0  0  0  0  0
  120.5976  122.2533   88.3341 C   0  0  0  0  0  0  0  0  0  0  0  0
  121.5284  121.8837   89.3067 C   0  0  0  0  0  0  0  0  0  0  0  0
  122.8900  121.8253   89.0022 C   0  0  0  0  0  0  0  0  0  0  0  0
  123.3345  122.1359   87.7194 C   0  0  0  0  0  0  0  0  0  0  0  0
  124.6881  122.1054   87.3198 N   0  0  0  0  0  0  0  0  0  0  0  0
  125.2393  121.4994   86.1832 C   0  0  0  0  0  0  0  0  0  0  0  0
  124.6043  120.7755   85.4161 O   0  0  0  0  0  0  0  0  0  0  0  0
  126.7532  121.7896   85.9940 C   0  0  0  0  0  0  0  0  0  0  0  0
  127.5426  121.8508   87.6015 Cl  0  0  0  0  0  0  0  0  0  0  0  0
  127.0201  123.3290   85.1488 Cl  0  0  0  0  0  0  0  0  0  0  0  0
  127.4550  120.4427   85.0524 Cl  0  0  0  0  0  0  0  0  0  0  0  0
  122.3904  122.5075   86.7478 C   0  0  0  0  0  0  0  0  0  0  0  0
  118.4161  124.2704   84.7370 H   0  0  0  0  0  0  0  0  0  0  0  0
  119.4654  124.8943   83.4192 H   0  0  0  0  0  0  0  0  0  0  0  0
  118.9512  123.1732   83.4192 H   0  0  0  0  0  0  0  0  0  0  0  0
  119.1616  122.6732   86.1070 H   0  0  0  0  0  0  0  0  0  0  0  0
  119.5278  122.2948   88.5867 H   0  0  0  0  0  0  0  0  0  0  0  0
  121.1861  121.6362   90.3224 H   0  0  0  0  0  0  0  0  0  0  0  0
  123.6134  121.5332   89.7776 H   0  0  0  0  0  0  0  0  0  0  0  0
  125.3529  122.5886   87.9407 H   0  0  0  0  0  0  0  0  0  0  0  0
  122.7325  122.7553   85.7322 H   0  0  0  0  0  0  0  0  0  0  0  0
  1  2  1  0
  2  3  2  0
  2  4  1  0
  4  5  1  0
  5  6  2  0
  6  7  1  0
  7  8  2  0
  8  9  1  0
  9 10  1  0
 10 11  1  0
 11 12  2  0
 11 13  1  0
 13 14  1  0
 13 15  1  0
 13 16  1  0
  9 17  2  0
 17  5  1  0
  1 18  1  0
  1 19  1  0
  1 20  1  0
  4 21  1  0
  6 22  1  0
  7 23  1  0
  8 24  1  0
 10 25  1  0
 17 26  1  0
M  END
>  <loss>  (20) 
0.4806615710258484

>  <score>  (20) 
6.287364482879639

$$$$
FEPGGPIAJYESNZ-UHFFFAOYSA-N
     RDKit          3D

 26 26  0  0  0  0  0  0  0  0999 V2000
  120.0232  124.5443   83.9917 C   0  0  0  0  0  0  0  0  0  0  0  0
  120.7891  123.3955   84.6000 C   0  0  0  0  0  0  0  0  0  0  0  0
  121.7000  122.8548   83.9841 O   0  0  0  0  0  0  0  0  0  0  0  0
  120.3510  123.0945   85.8780 N   0  0  0  0  0  0  0  0  0  0  0  0
  121.1313  122.6693   86.9750 C   0  0  0  0  0  0  0  0  0  0  0  0
  120.6104  122.3789   88.2336 C   0  0  0  0  0  0  0  0  0  0  0  0
  121.4551  121.9645   89.2649 C   0  0  0  0  0  0  0  0  0  0  0  0
  122.8291  121.8365   89.0507 C   0  0  0  0  0  0  0  0  0  0  0  0
  123.3725  122.1229   87.8007 C   0  0  0  0  0  0  0  0  0  0  0  0
  124.7460  122.0220   87.4908 N   0  0  0  0  0  0  0  0  0  0  0  0
  125.3364  121.4265   86.3684 C   0  0  0  0  0  0  0  0  0  0  0  0
  124.7112  120.7835   85.5249 O   0  0  0  0  0  0  0  0  0  0  0  0
  126.8633  121.6864   86.2553 C   0  0  0  0  0  0  0  0  0  0  0  0
  127.2027  123.3410   85.7051 Cl  0  0  0  0  0  0  0  0  0  0  0  0
  127.5713  120.5185   85.0953 Cl  0  0  0  0  0  0  0  0  0  0  0  0
  127.5854  121.4154   87.8672 Cl  0  0  0  0  0  0  0  0  0  0  0  0
  122.5142  122.5382   86.7691 C   0  0  0  0  0  0  0  0  0  0  0  0
  119.6052  125.1714   84.7929 H   0  0  0  0  0  0  0  0  0  0  0  0
  120.7004  125.1478   83.3693 H   0  0  0  0  0  0  0  0  0  0  0  0
  119.2058  124.1514   83.3693 H   0  0  0  0  0  0  0  0  0  0  0  0
  119.3398  123.1918   86.0482 H   0  0  0  0  0  0  0  0  0  0  0  0
  119.5299  122.4763   88.4155 H   0  0  0  0  0  0  0  0  0  0  0  0
  121.0346  121.7367   90.2555 H   0  0  0  0  0  0  0  0  0  0  0  0
  123.4840  121.5086   89.8714 H   0  0  0  0  0  0  0  0  0  0  0  0
  125.3946  122.4376   88.1746 H   0  0  0  0  0  0  0  0  0  0  0  0
  122.9346  122.7658   85.7783 H   0  0  0  0  0  0  0  0  0  0  0  0
  1  2  1  0
  2  3  2  0
  2  4  1  0
  4  5  1  0
  5  6  2  0
  6  7  1  0
  7  8  2  0
  8  9  1  0
  9 10  1  0
 10 11  1  0
 11 12  2  0
 11 13  1  0
 13 14  1  0
 13 15  1  0
 13 16  1  0
  9 17  2  0
 17  5  1  0
  1 18  1  0
  1 19  1  0
  1 20  1  0
  4 21  1  0
  6 22  1  0
  7 23  1  0
  8 24  1  0
 10 25  1  0
 17 26  1  0
M  END
>  <loss>  (21) 
0.7014818787574768

>  <score>  (21) 
6.403273582458496

$$$$
FEPGGPIAJYESNZ-UHFFFAOYSA-N
     RDKit          3D

 26 26  0  0  0  0  0  0  0  0999 V2000
  119.5955  124.0803   83.9002 C   0  0  0  0  0  0  0  0  0  0  0  0
  120.7063  123.3892   84.6518 C   0  0  0  0  0  0  0  0  0  0  0  0
  121.7905  123.1857   84.1184 O   0  0  0  0  0  0  0  0  0  0  0  0
  120.3228  123.0237   85.9305 N   0  0  0  0  0  0  0  0  0  0  0  0
  121.1588  122.6296   86.9977 C   0  0  0  0  0  0  0  0  0  0  0  0
  120.7004  122.3541   88.2837 C   0  0  0  0  0  0  0  0  0  0  0  0
  121.5974  121.9690   89.2817 C   0  0  0  0  0  0  0  0  0  0  0  0
  122.9615  121.8542   89.0061 C   0  0  0  0  0  0  0  0  0  0  0  0
  123.4425  122.1232   87.7270 C   0  0  0  0  0  0  0  0  0  0  0  0
  124.8015  122.0348   87.3557 N   0  0  0  0  0  0  0  0  0  0  0  0
  125.3491  121.4126   86.2261 C   0  0  0  0  0  0  0  0  0  0  0  0
  124.7224  120.6469   85.4936 O   0  0  0  0  0  0  0  0  0  0  0  0
  126.8491  121.7437   85.9975 C   0  0  0  0  0  0  0  0  0  0  0  0
  127.2725  123.2143   86.9297 Cl  0  0  0  0  0  0  0  0  0  0  0  0
  127.2006  122.0161   84.2777 Cl  0  0  0  0  0  0  0  0  0  0  0  0
  127.8125  120.3691   86.6105 Cl  0  0  0  0  0  0  0  0  0  0  0  0
  122.5322  122.5109   86.7297 C   0  0  0  0  0  0  0  0  0  0  0  0
  118.8869  124.5211   84.6168 H   0  0  0  0  0  0  0  0  0  0  0  0
  120.0193  124.8744   83.2679 H   0  0  0  0  0  0  0  0  0  0  0  0
  119.0704  123.3492   83.2679 H   0  0  0  0  0  0  0  0  0  0  0  0
  119.3117  123.0413   86.1259 H   0  0  0  0  0  0  0  0  0  0  0  0
  119.6281  122.4402   88.5136 H   0  0  0  0  0  0  0  0  0  0  0  0
  121.2261  121.7541   90.2946 H   0  0  0  0  0  0  0  0  0  0  0  0
  123.6581  121.5504   89.8014 H   0  0  0  0  0  0  0  0  0  0  0  0
  125.4739  122.4832   87.9942 H   0  0  0  0  0  0  0  0  0  0  0  0
  122.9033  122.7261   85.7168 H   0  0  0  0  0  0  0  0  0  0  0  0
  1  2  1  0
  2  3  2  0
  2  4  1  0
  4  5  1  0
  5  6  2  0
  6  7  1  0
  7  8  2  0
  8  9  1  0
  9 10  1  0
 10 11  1  0
 11 12  2  0
 11 13  1  0
 13 14  1  0
 13 15  1  0
 13 16  1  0
  9 17  2  0
 17  5  1  0
  1 18  1  0
  1 19  1  0
  1 20  1  0
  4 21  1  0
  6 22  1  0
  7 23  1  0
  8 24  1  0
 10 25  1  0
 17 26  1  0
M  END
>  <loss>  (22) 
0.7045037746429443

>  <score>  (22) 
6.355945587158203

$$$$
FEPGGPIAJYESNZ-UHFFFAOYSA-N
     RDKit          3D

 26 26  0  0  0  0  0  0  0  0999 V2000
  120.0732  124.4907   83.8987 C   0  0  0  0  0  0  0  0  0  0  0  0
  120.8691  123.3974   84.5676 C   0  0  0  0  0  0  0  0  0  0  0  0
  121.8043  122.8587   83.9865 O   0  0  0  0  0  0  0  0  0  0  0  0
  120.3920  123.1023   85.8315 N   0  0  0  0  0  0  0  0  0  0  0  0
  121.1326  122.6699   86.9526 C   0  0  0  0  0  0  0  0  0  0  0  0
  120.5786  122.4473   88.2121 C   0  0  0  0  0  0  0  0  0  0  0  0
  121.3839  122.0182   89.2679 C   0  0  0  0  0  0  0  0  0  0  0  0
  122.7486  121.8091   89.0704 C   0  0  0  0  0  0  0  0  0  0  0  0
  123.3249  122.0268   87.8148 C   0  0  0  0  0  0  0  0  0  0  0  0
  124.7117  121.7910   87.7001 N   0  0  0  0  0  0  0  0  0  0  0  0
  125.4327  121.4120   86.5617 C   0  0  0  0  0  0  0  0  0  0  0  0
  124.9312  120.8319   85.5974 O   0  0  0  0  0  0  0  0  0  0  0  0
  126.9488  121.7420   86.6397 C   0  0  0  0  0  0  0  0  0  0  0  0
  127.2654  123.2828   85.7838 Cl  0  0  0  0  0  0  0  0  0  0  0  0
  127.3765  121.9294   88.3632 Cl  0  0  0  0  0  0  0  0  0  0  0  0
  127.9261  120.4520   85.9043 Cl  0  0  0  0  0  0  0  0  0  0  0  0
  122.5084  122.4556   86.7639 C   0  0  0  0  0  0  0  0  0  0  0  0
  119.6092  125.1282   84.6658 H   0  0  0  0  0  0  0  0  0  0  0  0
  120.7412  125.0992   83.2714 H   0  0  0  0  0  0  0  0  0  0  0  0
  119.2890  124.0420   83.2714 H   0  0  0  0  0  0  0  0  0  0  0  0
  119.3773  123.2106   85.9712 H   0  0  0  0  0  0  0  0  0  0  0  0
  119.5029  122.6104   88.3744 H   0  0  0  0  0  0  0  0  0  0  0  0
  120.9407  121.8443   90.2595 H   0  0  0  0  0  0  0  0  0  0  0  0
  123.3761  121.4707   89.9081 H   0  0  0  0  0  0  0  0  0  0  0  0
  125.2622  121.9132   88.5620 H   0  0  0  0  0  0  0  0  0  0  0  0
  122.9509  122.6282   85.7718 H   0  0  0  0  0  0  0  0  0  0  0  0
  1  2  1  0
  2  3  2  0
  2  4  1  0
  4  5  1  0
  5  6  2  0
  6  7  1  0
  7  8  2  0
  8  9  1  0
  9 10  1  0
 10 11  1  0
 11 12  2  0
 11 13  1  0
 13 14  1  0
 13 15  1  0
 13 16  1  0
  9 17  2  0
 17  5  1  0
  1 18  1  0
  1 19  1  0
  1 20  1  0
  4 21  1  0
  6 22  1  0
  7 23  1  0
  8 24  1  0
 10 25  1  0
 17 26  1  0
M  END
>  <loss>  (23) 
0.7086433172225952

>  <score>  (23) 
6.37374210357666

$$$$
FEPGGPIAJYESNZ-UHFFFAOYSA-N
     RDKit          3D

 26 26  0  0  0  0  0  0  0  0999 V2000
  119.5976  124.1813   83.9199 C   0  0  0  0  0  0  0  0  0  0  0  0
  120.6870  123.3835   84.5928 C   0  0  0  0  0  0  0  0  0  0  0  0
  121.7007  123.0655   83.9809 O   0  0  0  0  0  0  0  0  0  0  0  0
  120.3718  123.0647   85.9015 N   0  0  0  0  0  0  0  0  0  0  0  0
  121.2543  122.6497   86.9216 C   0  0  0  0  0  0  0  0  0  0  0  0
  120.7061  122.4252   88.1877 C   0  0  0  0  0  0  0  0  0  0  0  0
  121.5173  122.0137   89.2450 C   0  0  0  0  0  0  0  0  0  0  0  0
  122.8863  121.8220   89.0493 C   0  0  0  0  0  0  0  0  0  0  0  0
  123.4531  122.0414   87.7951 C   0  0  0  0  0  0  0  0  0  0  0  0
  124.8234  121.8738   87.5016 N   0  0  0  0  0  0  0  0  0  0  0  0
  125.4016  121.3783   86.3276 C   0  0  0  0  0  0  0  0  0  0  0  0
  124.7985  120.6854   85.5072 O   0  0  0  0  0  0  0  0  0  0  0  0
  126.8810  121.8072   86.1314 C   0  0  0  0  0  0  0  0  0  0  0  0
  127.1785  123.4311   86.7933 Cl  0  0  0  0  0  0  0  0  0  0  0  0
  127.9194  120.6152   86.9645 Cl  0  0  0  0  0  0  0  0  0  0  0  0
  127.2609  121.8023   84.3828 Cl  0  0  0  0  0  0  0  0  0  0  0  0
  122.6268  122.4556   86.7372 C   0  0  0  0  0  0  0  0  0  0  0  0
  118.9597  124.6485   84.6846 H   0  0  0  0  0  0  0  0  0  0  0  0
  120.0501  124.9632   83.2922 H   0  0  0  0  0  0  0  0  0  0  0  0
  118.9888  123.5139   83.2922 H   0  0  0  0  0  0  0  0  0  0  0  0
  119.3779  123.1389   86.1616 H   0  0  0  0  0  0  0  0  0  0  0  0
  119.6285  122.5741   88.3511 H   0  0  0  0  0  0  0  0  0  0  0  0
  121.0764  121.8392   90.2376 H   0  0  0  0  0  0  0  0  0  0  0  0
  123.5197  121.4968   89.8878 H   0  0  0  0  0  0  0  0  0  0  0  0
  125.4803  122.1510   88.2450 H   0  0  0  0  0  0  0  0  0  0  0  0
  123.0679  122.6306   85.7448 H   0  0  0  0  0  0  0  0  0  0  0  0
  1  2  1  0
  2  3  2  0
  2  4  1  0
  4  5  1  0
  5  6  2  0
  6  7  1  0
  7  8  2  0
  8  9  1  0
  9 10  1  0
 10 11  1  0
 11 12  2  0
 11 13  1  0
 13 14  1  0
 13 15  1  0
 13 16  1  0
  9 17  2  0
 17  5  1  0
  1 18  1  0
  1 19  1  0
  1 20  1  0
  4 21  1  0
  6 22  1  0
  7 23  1  0
  8 24  1  0
 10 25  1  0
 17 26  1  0
M  END
>  <loss>  (24) 
0.7055357694625854

>  <score>  (24) 
6.238576889038086

$$$$
FEPGGPIAJYESNZ-UHFFFAOYSA-N
     RDKit          3D

 26 26  0  0  0  0  0  0  0  0999 V2000
  119.9105  124.3128   83.8468 C   0  0  0  0  0  0  0  0  0  0  0  0
  120.8627  123.3578   84.5236 C   0  0  0  0  0  0  0  0  0  0  0  0
  121.8754  122.9771   83.9503 O   0  0  0  0  0  0  0  0  0  0  0  0
  120.4593  123.0410   85.8078 N   0  0  0  0  0  0  0  0  0  0  0  0
  121.2629  122.6147   86.8876 C   0  0  0  0  0  0  0  0  0  0  0  0
  120.6165  122.4454   88.1183 C   0  0  0  0  0  0  0  0  0  0  0  0
  121.3291  122.0363   89.2429 C   0  0  0  0  0  0  0  0  0  0  0  0
  122.6958  121.7856   89.1432 C   0  0  0  0  0  0  0  0  0  0  0  0
  123.3615  121.9327   87.9193 C   0  0  0  0  0  0  0  0  0  0  0  0
  124.7445  121.6489   87.9219 N   0  0  0  0  0  0  0  0  0  0  0  0
  125.5782  121.3795   86.8301 C   0  0  0  0  0  0  0  0  0  0  0  0
  125.2493  120.6892   85.8670 O   0  0  0  0  0  0  0  0  0  0  0  0
  126.9696  122.0600   86.9277 C   0  0  0  0  0  0  0  0  0  0  0  0
  128.2167  120.8027   87.2113 Cl  0  0  0  0  0  0  0  0  0  0  0  0
  126.9423  123.1745   88.3249 Cl  0  0  0  0  0  0  0  0  0  0  0  0
  127.3681  122.9537   85.4445 Cl  0  0  0  0  0  0  0  0  0  0  0  0
  122.6369  122.3520   86.7961 C   0  0  0  0  0  0  0  0  0  0  0  0
  119.3506  124.8743   84.6093 H   0  0  0  0  0  0  0  0  0  0  0  0
  120.4793  125.0143   83.2189 H   0  0  0  0  0  0  0  0  0  0  0  0
  119.2073  123.7460   83.2189 H   0  0  0  0  0  0  0  0  0  0  0  0
  119.4509  123.1262   85.9997 H   0  0  0  0  0  0  0  0  0  0  0  0
  119.5363  122.6372   88.1976 H   0  0  0  0  0  0  0  0  0  0  0  0
  120.8143  121.9116   90.2070 H   0  0  0  0  0  0  0  0  0  0  0  0
  123.2579  121.4690   90.0342 H   0  0  0  0  0  0  0  0  0  0  0  0
  125.1985  121.6386   88.8464 H   0  0  0  0  0  0  0  0  0  0  0  0
  123.1516  122.4764   85.8319 H   0  0  0  0  0  0  0  0  0  0  0  0
  1  2  1  0
  2  3  2  0
  2  4  1  0
  4  5  1  0
  5  6  2  0
  6  7  1  0
  7  8  2  0
  8  9  1  0
  9 10  1  0
 10 11  1  0
 11 12  2  0
 11 13  1  0
 13 14  1  0
 13 15  1  0
 13 16  1  0
  9 17  2  0
 17  5  1  0
  1 18  1  0
  1 19  1  0
  1 20  1  0
  4 21  1  0
  6 22  1  0
  7 23  1  0
  8 24  1  0
 10 25  1  0
 17 26  1  0
M  END
>  <loss>  (25) 
0.7118437886238098

>  <score>  (25) 
6.03585147857666

$$$$
