FHOSFKLVCXFTBV-UHFFFAOYSA-N
     RDKit          3D

 25 25  0  0  0  0  0  0  0  0999 V2000
  119.8988  125.2410   82.9797 O   0  0  0  0  0  0  0  0  0  0  0  0
  119.5514  123.8917   82.6975 C   0  0  0  0  0  0  0  0  0  0  0  0
  120.3327  122.9566   83.6167 C   0  0  0  0  0  0  0  0  0  0  0  0
  120.3266  123.3993   85.0050 N   0  0  0  0  0  0  0  0  0  0  0  0
  121.0463  122.8805   86.0516 C   0  0  0  0  0  0  0  0  0  0  0  0
  120.2176  122.7194   87.4916 S   0  0  0  0  0  0  0  0  0  0  0  0
  122.3414  122.5410   85.7514 N   0  0  0  0  0  0  0  0  0  0  0  0
  123.4351  122.1842   86.5713 C   0  0  0  0  0  0  0  0  0  0  0  0
  123.3226  121.6230   87.8461 C   0  0  0  0  0  0  0  0  0  0  0  0
  124.4661  121.3252   88.5959 C   0  0  0  0  0  0  0  0  0  0  0  0
  125.7227  121.6026   88.0766 C   0  0  0  0  0  0  0  0  0  0  0  0
  126.8153  121.3196   88.7972 F   0  0  0  0  0  0  0  0  0  0  0  0
  125.8589  122.1820   86.8237 C   0  0  0  0  0  0  0  0  0  0  0  0
  124.7161  122.4791   86.0764 C   0  0  0  0  0  0  0  0  0  0  0  0
  119.9333  125.3748   83.9600 H   0  0  0  0  0  0  0  0  0  0  0  0
  118.4731  123.7496   82.8621 H   0  0  0  0  0  0  0  0  0  0  0  0
  119.7983  123.6633   81.6501 H   0  0  0  0  0  0  0  0  0  0  0  0
  119.8821  121.9545   83.5648 H   0  0  0  0  0  0  0  0  0  0  0  0
  121.3780  122.9505   83.2742 H   0  0  0  0  0  0  0  0  0  0  0  0
  119.7103  124.1943   85.2264 H   0  0  0  0  0  0  0  0  0  0  0  0
  122.5553  122.5474   84.7439 H   0  0  0  0  0  0  0  0  0  0  0  0
  122.3268  121.4135   88.2638 H   0  0  0  0  0  0  0  0  0  0  0  0
  124.3692  120.8726   89.5938 H   0  0  0  0  0  0  0  0  0  0  0  0
  126.8581  122.4057   86.4217 H   0  0  0  0  0  0  0  0  0  0  0  0
  124.8211  122.9499   85.0878 H   0  0  0  0  0  0  0  0  0  0  0  0
  1  2  1  0
  2  3  1  0
  3  4  1  0
  4  5  1  0
  5  6  2  0
  5  7  1  0
  7  8  1  0
  8  9  2  0
  9 10  1  0
 10 11  2  0
 11 12  1  0
 11 13  1  0
 13 14  2  0
 14  8  1  0
  1 15  1  0
  2 16  1  0
  2 17  1  0
  3 18  1  0
  3 19  1  0
  4 20  1  0
  7 21  1  0
  9 22  1  0
 10 23  1  0
 13 24  1  0
 14 25  1  0
M  END
>  <loss>  (1) 
0.6050564646720886

>  <score>  (1) 
2.9063661098480225

$$$$
FHOSFKLVCXFTBV-UHFFFAOYSA-N
     RDKit          3D

 25 25  0  0  0  0  0  0  0  0999 V2000
  118.2087  123.4571   83.0603 O   0  0  0  0  0  0  0  0  0  0  0  0
  119.4901  122.8435   82.9506 C   0  0  0  0  0  0  0  0  0  0  0  0
  120.5730  123.7826   83.4839 C   0  0  0  0  0  0  0  0  0  0  0  0
  120.5246  123.9065   84.9397 N   0  0  0  0  0  0  0  0  0  0  0  0
  121.0210  123.0448   85.8826 C   0  0  0  0  0  0  0  0  0  0  0  0
  120.0187  122.7084   87.1730 S   0  0  0  0  0  0  0  0  0  0  0  0
  122.2957  122.5992   85.6408 N   0  0  0  0  0  0  0  0  0  0  0  0
  123.3392  122.2496   86.5259 C   0  0  0  0  0  0  0  0  0  0  0  0
  123.1398  121.7443   87.8138 C   0  0  0  0  0  0  0  0  0  0  0  0
  124.2313  121.3923   88.6150 C   0  0  0  0  0  0  0  0  0  0  0  0
  125.5211  121.5310   88.1216 C   0  0  0  0  0  0  0  0  0  0  0  0
  126.5645  121.1905   88.8886 F   0  0  0  0  0  0  0  0  0  0  0  0
  125.7414  122.0065   86.8368 C   0  0  0  0  0  0  0  0  0  0  0  0
  124.6507  122.3573   86.0371 C   0  0  0  0  0  0  0  0  0  0  0  0
  117.9767  123.5682   84.0163 H   0  0  0  0  0  0  0  0  0  0  0  0
  119.4978  121.9114   83.5347 H   0  0  0  0  0  0  0  0  0  0  0  0
  119.6940  122.6251   81.8920 H   0  0  0  0  0  0  0  0  0  0  0  0
  121.5583  123.3889   83.1938 H   0  0  0  0  0  0  0  0  0  0  0  0
  120.3992  124.7797   83.0529 H   0  0  0  0  0  0  0  0  0  0  0  0
  120.0576  124.7495   85.3034 H   0  0  0  0  0  0  0  0  0  0  0  0
  122.5321  122.5030   84.6430 H   0  0  0  0  0  0  0  0  0  0  0  0
  122.1171  121.6224   88.2002 H   0  0  0  0  0  0  0  0  0  0  0  0
  124.0679  121.0071   89.6323 H   0  0  0  0  0  0  0  0  0  0  0  0
  126.7667  122.1065   86.4509 H   0  0  0  0  0  0  0  0  0  0  0  0
  124.8215  122.7219   85.0134 H   0  0  0  0  0  0  0  0  0  0  0  0
  1  2  1  0
  2  3  1  0
  3  4  1  0
  4  5  1  0
  5  6  2  0
  5  7  1  0
  7  8  1  0
  8  9  2  0
  9 10  1  0
 10 11  2  0
 11 12  1  0
 11 13  1  0
 13 14  2  0
 14  8  1  0
  1 15  1  0
  2 16  1  0
  2 17  1  0
  3 18  1  0
  3 19  1  0
  4 20  1  0
  7 21  1  0
  9 22  1  0
 10 23  1  0
 13 24  1  0
 14 25  1  0
M  END
>  <loss>  (2) 
0.5722742676734924

>  <score>  (2) 
2.684325933456421

$$$$
FHOSFKLVCXFTBV-UHFFFAOYSA-N
     RDKit          3D

 25 25  0  0  0  0  0  0  0  0999 V2000
  118.4515  122.5917   82.8157 O   0  0  0  0  0  0  0  0  0  0  0  0
  118.9894  123.8243   83.2951 C   0  0  0  0  0  0  0  0  0  0  0  0
  120.4986  123.6863   83.4813 C   0  0  0  0  0  0  0  0  0  0  0  0
  120.8801  124.0119   84.8544 N   0  0  0  0  0  0  0  0  0  0  0  0
  121.0253  123.1250   85.8785 C   0  0  0  0  0  0  0  0  0  0  0  0
  120.0474  123.0415   87.2337 S   0  0  0  0  0  0  0  0  0  0  0  0
  122.0771  122.2560   85.8104 N   0  0  0  0  0  0  0  0  0  0  0  0
  123.2119  122.0779   86.6272 C   0  0  0  0  0  0  0  0  0  0  0  0
  124.5292  122.2687   86.1969 C   0  0  0  0  0  0  0  0  0  0  0  0
  125.5986  122.0497   87.0713 C   0  0  0  0  0  0  0  0  0  0  0  0
  125.3507  121.6258   88.3699 C   0  0  0  0  0  0  0  0  0  0  0  0
  126.3766  121.4146   89.2042 F   0  0  0  0  0  0  0  0  0  0  0  0
  124.0529  121.4050   88.8091 C   0  0  0  0  0  0  0  0  0  0  0  0
  122.9852  121.6227   87.9348 C   0  0  0  0  0  0  0  0  0  0  0  0
  118.2018  122.0195   83.5841 H   0  0  0  0  0  0  0  0  0  0  0  0
  118.7818  124.6222   82.5669 H   0  0  0  0  0  0  0  0  0  0  0  0
  118.5237  124.0758   84.2594 H   0  0  0  0  0  0  0  0  0  0  0  0
  120.7970  122.6511   83.2592 H   0  0  0  0  0  0  0  0  0  0  0  0
  121.0053  124.3836   82.7979 H   0  0  0  0  0  0  0  0  0  0  0  0
  121.0555  125.0043   85.0676 H   0  0  0  0  0  0  0  0  0  0  0  0
  122.0324  121.6083   85.0108 H   0  0  0  0  0  0  0  0  0  0  0  0
  124.7252  122.5930   85.1642 H   0  0  0  0  0  0  0  0  0  0  0  0
  126.6320  122.2128   86.7315 H   0  0  0  0  0  0  0  0  0  0  0  0
  123.8664  121.0613   89.8372 H   0  0  0  0  0  0  0  0  0  0  0  0
  121.9561  121.4354   88.2751 H   0  0  0  0  0  0  0  0  0  0  0  0
  1  2  1  0
  2  3  1  0
  3  4  1  0
  4  5  1  0
  5  6  2  0
  5  7  1  0
  7  8  1  0
  8  9  2  0
  9 10  1  0
 10 11  2  0
 11 12  1  0
 11 13  1  0
 13 14  2  0
 14  8  1  0
  1 15  1  0
  2 16  1  0
  2 17  1  0
  3 18  1  0
  3 19  1  0
  4 20  1  0
  7 21  1  0
  9 22  1  0
 10 23  1  0
 13 24  1  0
 14 25  1  0
M  END
>  <loss>  (3) 
0.5874573588371277

>  <score>  (3) 
2.753845691680908

$$$$
FHOSFKLVCXFTBV-UHFFFAOYSA-N
     RDKit          3D

 25 25  0  0  0  0  0  0  0  0999 V2000
  118.4275  123.1756   83.0807 O   0  0  0  0  0  0  0  0  0  0  0  0
  119.8068  122.8555   82.9200 C   0  0  0  0  0  0  0  0  0  0  0  0
  120.6780  123.9319   83.5690 C   0  0  0  0  0  0  0  0  0  0  0  0
  120.5548  123.9339   85.0258 N   0  0  0  0  0  0  0  0  0  0  0  0
  121.0432  123.0184   85.9208 C   0  0  0  0  0  0  0  0  0  0  0  0
  120.0347  122.6169   87.1877 S   0  0  0  0  0  0  0  0  0  0  0  0
  122.3160  122.5792   85.6585 N   0  0  0  0  0  0  0  0  0  0  0  0
  123.3769  122.2392   86.5265 C   0  0  0  0  0  0  0  0  0  0  0  0
  123.2060  121.6394   87.7775 C   0  0  0  0  0  0  0  0  0  0  0  0
  124.3152  121.3055   88.5619 C   0  0  0  0  0  0  0  0  0  0  0  0
  125.5951  121.5569   88.0878 C   0  0  0  0  0  0  0  0  0  0  0  0
  126.6556  121.2335   88.8386 F   0  0  0  0  0  0  0  0  0  0  0  0
  125.7888  122.1280   86.8381 C   0  0  0  0  0  0  0  0  0  0  0  0
  124.6804  122.4608   86.0551 C   0  0  0  0  0  0  0  0  0  0  0  0
  118.2106  123.2260   84.0453 H   0  0  0  0  0  0  0  0  0  0  0  0
  120.0126  121.8856   83.3963 H   0  0  0  0  0  0  0  0  0  0  0  0
  120.0405  122.8039   81.8463 H   0  0  0  0  0  0  0  0  0  0  0  0
  121.7289  123.7464   83.3021 H   0  0  0  0  0  0  0  0  0  0  0  0
  120.3394  124.9108   83.1989 H   0  0  0  0  0  0  0  0  0  0  0  0
  120.0343  124.7248   85.4313 H   0  0  0  0  0  0  0  0  0  0  0  0
  122.5356  122.4807   84.6570 H   0  0  0  0  0  0  0  0  0  0  0  0
  122.1919  121.4285   88.1478 H   0  0  0  0  0  0  0  0  0  0  0  0
  124.1734  120.8453   89.5509 H   0  0  0  0  0  0  0  0  0  0  0  0
  126.8068  122.3173   86.4668 H   0  0  0  0  0  0  0  0  0  0  0  0
  124.8310  122.9013   85.0584 H   0  0  0  0  0  0  0  0  0  0  0  0
  1  2  1  0
  2  3  1  0
  3  4  1  0
  4  5  1  0
  5  6  2  0
  5  7  1  0
  7  8  1  0
  8  9  2  0
  9 10  1  0
 10 11  2  0
 11 12  1  0
 11 13  1  0
 13 14  2  0
 14  8  1  0
  1 15  1  0
  2 16  1  0
  2 17  1  0
  3 18  1  0
  3 19  1  0
  4 20  1  0
  7 21  1  0
  9 22  1  0
 10 23  1  0
 13 24  1  0
 14 25  1  0
M  END
>  <loss>  (4) 
0.5822951793670654

>  <score>  (4) 
2.7170982360839844

$$$$
FHOSFKLVCXFTBV-UHFFFAOYSA-N
     RDKit          3D

 25 25  0  0  0  0  0  0  0  0999 V2000
  119.8098  125.1132   82.4016 O   0  0  0  0  0  0  0  0  0  0  0  0
  119.2437  124.7193   83.6537 C   0  0  0  0  0  0  0  0  0  0  0  0
  119.3021  123.1975   83.7829 C   0  0  0  0  0  0  0  0  0  0  0  0
  120.5739  122.7617   84.3630 N   0  0  0  0  0  0  0  0  0  0  0  0
  120.9806  122.8757   85.6867 C   0  0  0  0  0  0  0  0  0  0  0  0
  119.9199  122.8138   86.9783 S   0  0  0  0  0  0  0  0  0  0  0  0
  122.3571  123.0659   85.7317 N   0  0  0  0  0  0  0  0  0  0  0  0
  123.3577  122.5144   86.5633 C   0  0  0  0  0  0  0  0  0  0  0  0
  124.6786  122.5835   86.0907 C   0  0  0  0  0  0  0  0  0  0  0  0
  125.7341  122.0466   86.8327 C   0  0  0  0  0  0  0  0  0  0  0  0
  125.4689  121.4231   88.0431 C   0  0  0  0  0  0  0  0  0  0  0  0
  126.4774  120.9042   88.7550 F   0  0  0  0  0  0  0  0  0  0  0  0
  124.1687  121.3197   88.5167 C   0  0  0  0  0  0  0  0  0  0  0  0
  123.1129  121.8585   87.7726 C   0  0  0  0  0  0  0  0  0  0  0  0
  120.6116  125.6711   82.5629 H   0  0  0  0  0  0  0  0  0  0  0  0
  119.8134  125.1792   84.4746 H   0  0  0  0  0  0  0  0  0  0  0  0
  118.1962  125.0516   83.7033 H   0  0  0  0  0  0  0  0  0  0  0  0
  118.4789  122.8609   84.4302 H   0  0  0  0  0  0  0  0  0  0  0  0
  119.2106  122.7598   82.7779 H   0  0  0  0  0  0  0  0  0  0  0  0
  121.2432  122.3204   83.7163 H   0  0  0  0  0  0  0  0  0  0  0  0
  122.7129  123.7308   85.0302 H   0  0  0  0  0  0  0  0  0  0  0  0
  124.8848  123.0664   85.1242 H   0  0  0  0  0  0  0  0  0  0  0  0
  126.7665  122.1178   86.4599 H   0  0  0  0  0  0  0  0  0  0  0  0
  123.9685  120.8160   89.4739 H   0  0  0  0  0  0  0  0  0  0  0  0
  122.0814  121.7648   88.1430 H   0  0  0  0  0  0  0  0  0  0  0  0
  1  2  1  0
  2  3  1  0
  3  4  1  0
  4  5  1  0
  5  6  2  0
  5  7  1  0
  7  8  1  0
  8  9  2  0
  9 10  1  0
 10 11  2  0
 11 12  1  0
 11 13  1  0
 13 14  2  0
 14  8  1  0
  1 15  1  0
  2 16  1  0
  2 17  1  0
  3 18  1  0
  3 19  1  0
  4 20  1  0
  7 21  1  0
  9 22  1  0
 10 23  1  0
 13 24  1  0
 14 25  1  0
M  END
>  <loss>  (5) 
0.6034755110740662

>  <score>  (5) 
2.822509288787842

$$$$
FHOSFKLVCXFTBV-UHFFFAOYSA-N
     RDKit          3D

 25 25  0  0  0  0  0  0  0  0999 V2000
  118.1968  123.4704   83.0504 O   0  0  0  0  0  0  0  0  0  0  0  0
  119.4502  122.8068   82.9530 C   0  0  0  0  0  0  0  0  0  0  0  0
  120.5593  123.7262   83.4574 C   0  0  0  0  0  0  0  0  0  0  0  0
  120.5182  123.9161   84.9015 N   0  0  0  0  0  0  0  0  0  0  0  0
  121.0295  123.0882   85.8690 C   0  0  0  0  0  0  0  0  0  0  0  0
  120.0023  122.7336   87.1360 S   0  0  0  0  0  0  0  0  0  0  0  0
  122.3078  122.6473   85.6368 N   0  0  0  0  0  0  0  0  0  0  0  0
  123.3331  122.2293   86.5141 C   0  0  0  0  0  0  0  0  0  0  0  0
  123.1238  121.7521   87.8107 C   0  0  0  0  0  0  0  0  0  0  0  0
  124.2069  121.3839   88.6169 C   0  0  0  0  0  0  0  0  0  0  0  0
  125.5011  121.5070   88.1315 C   0  0  0  0  0  0  0  0  0  0  0  0
  126.5359  121.1570   88.9059 F   0  0  0  0  0  0  0  0  0  0  0  0
  125.7351  122.0011   86.8566 C   0  0  0  0  0  0  0  0  0  0  0  0
  124.6526  122.3686   86.0530 C   0  0  0  0  0  0  0  0  0  0  0  0
  117.9623  123.5945   84.0042 H   0  0  0  0  0  0  0  0  0  0  0  0
  119.4279  121.8918   83.5631 H   0  0  0  0  0  0  0  0  0  0  0  0
  119.6433  122.5452   81.9021 H   0  0  0  0  0  0  0  0  0  0  0  0
  121.5309  123.2866   83.1876 H   0  0  0  0  0  0  0  0  0  0  0  0
  120.4142  124.7106   82.9883 H   0  0  0  0  0  0  0  0  0  0  0  0
  120.0510  124.7713   85.2349 H   0  0  0  0  0  0  0  0  0  0  0  0
  122.5674  122.6152   84.6405 H   0  0  0  0  0  0  0  0  0  0  0  0
  122.0991  121.6652   88.2010 H   0  0  0  0  0  0  0  0  0  0  0  0
  124.0329  120.9981   89.6322 H   0  0  0  0  0  0  0  0  0  0  0  0
  126.7641  122.1027   86.4814 H   0  0  0  0  0  0  0  0  0  0  0  0
  124.8361  122.7723   85.0464 H   0  0  0  0  0  0  0  0  0  0  0  0
  1  2  1  0
  2  3  1  0
  3  4  1  0
  4  5  1  0
  5  6  2  0
  5  7  1  0
  7  8  1  0
  8  9  2  0
  9 10  1  0
 10 11  2  0
 11 12  1  0
 11 13  1  0
 13 14  2  0
 14  8  1  0
  1 15  1  0
  2 16  1  0
  2 17  1  0
  3 18  1  0
  3 19  1  0
  4 20  1  0
  7 21  1  0
  9 22  1  0
 10 23  1  0
 13 24  1  0
 14 25  1  0
M  END
>  <loss>  (6) 
0.572805643081665

>  <score>  (6) 
2.652945041656494

$$$$
FHOSFKLVCXFTBV-UHFFFAOYSA-N
     RDKit          3D

 25 25  0  0  0  0  0  0  0  0999 V2000
  118.1368  123.7392   83.0306 O   0  0  0  0  0  0  0  0  0  0  0  0
  119.3029  122.9222   83.0905 C   0  0  0  0  0  0  0  0  0  0  0  0
  120.5177  123.7635   83.4847 C   0  0  0  0  0  0  0  0  0  0  0  0
  120.5823  123.9932   84.9271 N   0  0  0  0  0  0  0  0  0  0  0  0
  120.9941  123.1286   85.9073 C   0  0  0  0  0  0  0  0  0  0  0  0
  119.9908  122.9862   87.2326 S   0  0  0  0  0  0  0  0  0  0  0  0
  122.1990  122.5182   85.6675 N   0  0  0  0  0  0  0  0  0  0  0  0
  123.2643  122.1958   86.5368 C   0  0  0  0  0  0  0  0  0  0  0  0
  123.1038  121.5713   87.7770 C   0  0  0  0  0  0  0  0  0  0  0  0
  124.2177  121.2577   88.5632 C   0  0  0  0  0  0  0  0  0  0  0  0
  125.4924  121.5545   88.1014 C   0  0  0  0  0  0  0  0  0  0  0  0
  126.5575  121.2505   88.8538 F   0  0  0  0  0  0  0  0  0  0  0  0
  125.6765  122.1510   86.8622 C   0  0  0  0  0  0  0  0  0  0  0  0
  124.5634  122.4634   86.0774 C   0  0  0  0  0  0  0  0  0  0  0  0
  117.8346  123.9509   83.9493 H   0  0  0  0  0  0  0  0  0  0  0  0
  119.1526  122.1288   83.8375 H   0  0  0  0  0  0  0  0  0  0  0  0
  119.4806  122.4772   82.1004 H   0  0  0  0  0  0  0  0  0  0  0  0
  121.4308  123.2384   83.1678 H   0  0  0  0  0  0  0  0  0  0  0  0
  120.4277  124.7416   82.9895 H   0  0  0  0  0  0  0  0  0  0  0  0
  120.2796  124.9240   85.2476 H   0  0  0  0  0  0  0  0  0  0  0  0
  122.3531  122.2490   84.6854 H   0  0  0  0  0  0  0  0  0  0  0  0
  122.0942  121.3246   88.1375 H   0  0  0  0  0  0  0  0  0  0  0  0
  124.0837  120.7777   89.5439 H   0  0  0  0  0  0  0  0  0  0  0  0
  126.6906  122.3762   86.5005 H   0  0  0  0  0  0  0  0  0  0  0  0
  124.7068  122.9241   85.0888 H   0  0  0  0  0  0  0  0  0  0  0  0
  1  2  1  0
  2  3  1  0
  3  4  1  0
  4  5  1  0
  5  6  2  0
  5  7  1  0
  7  8  1  0
  8  9  2  0
  9 10  1  0
 10 11  2  0
 11 12  1  0
 11 13  1  0
 13 14  2  0
 14  8  1  0
  1 15  1  0
  2 16  1  0
  2 17  1  0
  3 18  1  0
  3 19  1  0
  4 20  1  0
  7 21  1  0
  9 22  1  0
 10 23  1  0
 13 24  1  0
 14 25  1  0
M  END
>  <loss>  (7) 
0.5959708094596863

>  <score>  (7) 
2.756735324859619

$$$$
FHOSFKLVCXFTBV-UHFFFAOYSA-N
     RDKit          3D

 25 25  0  0  0  0  0  0  0  0999 V2000
  118.2671  123.6708   82.9901 O   0  0  0  0  0  0  0  0  0  0  0  0
  119.3951  122.7942   83.0410 C   0  0  0  0  0  0  0  0  0  0  0  0
  120.6431  123.5914   83.4190 C   0  0  0  0  0  0  0  0  0  0  0  0
  120.6397  123.9417   84.8408 N   0  0  0  0  0  0  0  0  0  0  0  0
  120.9276  123.1094   85.9154 C   0  0  0  0  0  0  0  0  0  0  0  0
  119.8752  122.8669   87.1925 S   0  0  0  0  0  0  0  0  0  0  0  0
  122.1964  122.5654   85.7508 N   0  0  0  0  0  0  0  0  0  0  0  0
  123.2000  122.2163   86.6822 C   0  0  0  0  0  0  0  0  0  0  0  0
  124.5308  122.3348   86.2488 C   0  0  0  0  0  0  0  0  0  0  0  0
  125.5920  121.9929   87.0914 C   0  0  0  0  0  0  0  0  0  0  0  0
  125.3241  121.5146   88.3657 C   0  0  0  0  0  0  0  0  0  0  0  0
  126.3383  121.1825   89.1745 F   0  0  0  0  0  0  0  0  0  0  0  0
  124.0166  121.3641   88.8054 C   0  0  0  0  0  0  0  0  0  0  0  0
  122.9552  121.7076   87.9604 C   0  0  0  0  0  0  0  0  0  0  0  0
  117.9804  123.8936   83.9111 H   0  0  0  0  0  0  0  0  0  0  0  0
  119.2178  122.0118   83.7936 H   0  0  0  0  0  0  0  0  0  0  0  0
  119.5422  122.3283   82.0555 H   0  0  0  0  0  0  0  0  0  0  0  0
  121.5350  122.9856   83.2013 H   0  0  0  0  0  0  0  0  0  0  0  0
  120.6520  124.5217   82.8321 H   0  0  0  0  0  0  0  0  0  0  0  0
  120.3963  124.9158   85.0703 H   0  0  0  0  0  0  0  0  0  0  0  0
  122.4517  122.3833   84.7697 H   0  0  0  0  0  0  0  0  0  0  0  0
  124.7404  122.7015   85.2332 H   0  0  0  0  0  0  0  0  0  0  0  0
  126.6309  122.1021   86.7470 H   0  0  0  0  0  0  0  0  0  0  0  0
  123.8151  120.9762   89.8148 H   0  0  0  0  0  0  0  0  0  0  0  0
  121.9191  121.5759   88.3055 H   0  0  0  0  0  0  0  0  0  0  0  0
  1  2  1  0
  2  3  1  0
  3  4  1  0
  4  5  1  0
  5  6  2  0
  5  7  1  0
  7  8  1  0
  8  9  2  0
  9 10  1  0
 10 11  2  0
 11 12  1  0
 11 13  1  0
 13 14  2  0
 14  8  1  0
  1 15  1  0
  2 16  1  0
  2 17  1  0
  3 18  1  0
  3 19  1  0
  4 20  1  0
  7 21  1  0
  9 22  1  0
 10 23  1  0
 13 24  1  0
 14 25  1  0
M  END
>  <loss>  (8) 
0.5911204814910889

>  <score>  (8) 
2.725785493850708

$$$$
FHOSFKLVCXFTBV-UHFFFAOYSA-N
     RDKit          3D

 25 25  0  0  0  0  0  0  0  0999 V2000
  119.5081  125.2287   82.8745 O   0  0  0  0  0  0  0  0  0  0  0  0
  119.0574  123.8820   82.9361 C   0  0  0  0  0  0  0  0  0  0  0  0
  120.0774  123.0324   83.6895 C   0  0  0  0  0  0  0  0  0  0  0  0
  120.4889  123.6355   84.9505 N   0  0  0  0  0  0  0  0  0  0  0  0
  121.0481  123.0077   86.0349 C   0  0  0  0  0  0  0  0  0  0  0  0
  120.1842  123.1146   87.4592 S   0  0  0  0  0  0  0  0  0  0  0  0
  122.2282  122.3554   85.7810 N   0  0  0  0  0  0  0  0  0  0  0  0
  123.3400  122.0669   86.6034 C   0  0  0  0  0  0  0  0  0  0  0  0
  123.2580  121.5242   87.8885 C   0  0  0  0  0  0  0  0  0  0  0  0
  124.4166  121.2956   88.6395 C   0  0  0  0  0  0  0  0  0  0  0  0
  125.6569  121.6240   88.1110 C   0  0  0  0  0  0  0  0  0  0  0  0
  126.7638  121.4073   88.8328 F   0  0  0  0  0  0  0  0  0  0  0  0
  125.7617  122.1864   86.8473 C   0  0  0  0  0  0  0  0  0  0  0  0
  124.6039  122.4143   86.0988 C   0  0  0  0  0  0  0  0  0  0  0  0
  119.6256  125.5798   83.7926 H   0  0  0  0  0  0  0  0  0  0  0  0
  118.0910  123.8434   83.4601 H   0  0  0  0  0  0  0  0  0  0  0  0
  118.9397  123.4900   81.9151 H   0  0  0  0  0  0  0  0  0  0  0  0
  119.6307  122.0492   83.8987 H   0  0  0  0  0  0  0  0  0  0  0  0
  120.9717  122.9458   83.0548 H   0  0  0  0  0  0  0  0  0  0  0  0
  120.3430  124.6513   85.0381 H   0  0  0  0  0  0  0  0  0  0  0  0
  122.3203  122.0136   84.8137 H   0  0  0  0  0  0  0  0  0  0  0  0
  122.2746  121.2744   88.3133 H   0  0  0  0  0  0  0  0  0  0  0  0
  124.3443  120.8571   89.6458 H   0  0  0  0  0  0  0  0  0  0  0  0
  126.7479  122.4508   86.4379 H   0  0  0  0  0  0  0  0  0  0  0  0
  124.6834  122.8716   85.1015 H   0  0  0  0  0  0  0  0  0  0  0  0
  1  2  1  0
  2  3  1  0
  3  4  1  0
  4  5  1  0
  5  6  2  0
  5  7  1  0
  7  8  1  0
  8  9  2  0
  9 10  1  0
 10 11  2  0
 11 12  1  0
 11 13  1  0
 13 14  2  0
 14  8  1  0
  1 15  1  0
  2 16  1  0
  2 17  1  0
  3 18  1  0
  3 19  1  0
  4 20  1  0
  7 21  1  0
  9 22  1  0
 10 23  1  0
 13 24  1  0
 14 25  1  0
M  END
>  <loss>  (9) 
0.6013491749763489

>  <score>  (9) 
2.7724685668945312

$$$$
FHOSFKLVCXFTBV-UHFFFAOYSA-N
     RDKit          3D

 25 25  0  0  0  0  0  0  0  0999 V2000
  118.6506  122.4853   82.2512 O   0  0  0  0  0  0  0  0  0  0  0  0
  118.8738  123.3776   83.3350 C   0  0  0  0  0  0  0  0  0  0  0  0
  120.3482  123.7698   83.3828 C   0  0  0  0  0  0  0  0  0  0  0  0
  120.7875  124.1415   84.7215 N   0  0  0  0  0  0  0  0  0  0  0  0
  121.0621  123.3053   85.7741 C   0  0  0  0  0  0  0  0  0  0  0  0
  120.0100  123.3980   87.0667 S   0  0  0  0  0  0  0  0  0  0  0  0
  122.1510  122.4897   85.5965 N   0  0  0  0  0  0  0  0  0  0  0  0
  123.2217  122.1494   86.4530 C   0  0  0  0  0  0  0  0  0  0  0  0
  123.0746  121.5937   87.7266 C   0  0  0  0  0  0  0  0  0  0  0  0
  124.1967  121.3125   88.5142 C   0  0  0  0  0  0  0  0  0  0  0  0
  125.4662  121.6011   88.0338 C   0  0  0  0  0  0  0  0  0  0  0  0
  126.5382  121.3340   88.7906 F   0  0  0  0  0  0  0  0  0  0  0  0
  125.6361  122.1753   86.7826 C   0  0  0  0  0  0  0  0  0  0  0  0
  124.5147  122.4558   85.9976 C   0  0  0  0  0  0  0  0  0  0  0  0
  118.4260  121.5878   82.6036 H   0  0  0  0  0  0  0  0  0  0  0  0
  118.2596  124.2799   83.1983 H   0  0  0  0  0  0  0  0  0  0  0  0
  118.5978  122.8824   84.2776 H   0  0  0  0  0  0  0  0  0  0  0  0
  120.9508  122.9163   83.0388 H   0  0  0  0  0  0  0  0  0  0  0  0
  120.4799  124.6481   82.7338 H   0  0  0  0  0  0  0  0  0  0  0  0
  120.9057  125.1493   84.8982 H   0  0  0  0  0  0  0  0  0  0  0  0
  122.1961  122.0441   84.6690 H   0  0  0  0  0  0  0  0  0  0  0  0
  122.0682  121.3754   88.1134 H   0  0  0  0  0  0  0  0  0  0  0  0
  124.0728  120.8642   89.5110 H   0  0  0  0  0  0  0  0  0  0  0  0
  126.6452  122.4080   86.4116 H   0  0  0  0  0  0  0  0  0  0  0  0
  124.6461  122.9226   85.0102 H   0  0  0  0  0  0  0  0  0  0  0  0
  1  2  1  0
  2  3  1  0
  3  4  1  0
  4  5  1  0
  5  6  2  0
  5  7  1  0
  7  8  1  0
  8  9  2  0
  9 10  1  0
 10 11  2  0
 11 12  1  0
 11 13  1  0
 13 14  2  0
 14  8  1  0
  1 15  1  0
  2 16  1  0
  2 17  1  0
  3 18  1  0
  3 19  1  0
  4 20  1  0
  7 21  1  0
  9 22  1  0
 10 23  1  0
 13 24  1  0
 14 25  1  0
M  END
>  <loss>  (10) 
0.5931280255317688

>  <score>  (10) 
2.6896939277648926

$$$$
FHOSFKLVCXFTBV-UHFFFAOYSA-N
     RDKit          3D

 25 25  0  0  0  0  0  0  0  0999 V2000
  118.3849  123.5203   83.0511 O   0  0  0  0  0  0  0  0  0  0  0  0
  119.6365  122.8333   83.0633 C   0  0  0  0  0  0  0  0  0  0  0  0
  120.7485  123.8026   83.4577 C   0  0  0  0  0  0  0  0  0  0  0  0
  120.7517  124.0223   84.9030 N   0  0  0  0  0  0  0  0  0  0  0  0
  121.0322  123.0894   85.8556 C   0  0  0  0  0  0  0  0  0  0  0  0
  120.1392  122.8256   87.2458 S   0  0  0  0  0  0  0  0  0  0  0  0
  122.1548  122.3314   85.6789 N   0  0  0  0  0  0  0  0  0  0  0  0
  123.3027  122.1406   86.4743 C   0  0  0  0  0  0  0  0  0  0  0  0
  124.5994  122.4880   86.0812 C   0  0  0  0  0  0  0  0  0  0  0  0
  125.6855  122.2443   86.9280 C   0  0  0  0  0  0  0  0  0  0  0  0
  125.4759  121.6398   88.1602 C   0  0  0  0  0  0  0  0  0  0  0  0
  126.5179  121.4055   88.9680 F   0  0  0  0  0  0  0  0  0  0  0  0
  124.2011  121.2632   88.5585 C   0  0  0  0  0  0  0  0  0  0  0  0
  123.1168  121.5058   87.7116 C   0  0  0  0  0  0  0  0  0  0  0  0
  118.0886  123.6829   83.9816 H   0  0  0  0  0  0  0  0  0  0  0  0
  119.5946  122.0088   83.7903 H   0  0  0  0  0  0  0  0  0  0  0  0
  119.8418  122.4300   82.0608 H   0  0  0  0  0  0  0  0  0  0  0  0
  121.7187  123.3825   83.1539 H   0  0  0  0  0  0  0  0  0  0  0  0
  120.5754  124.7647   82.9534 H   0  0  0  0  0  0  0  0  0  0  0  0
  120.5203  124.9706   85.2318 H   0  0  0  0  0  0  0  0  0  0  0  0
  122.1643  121.7984   84.7976 H   0  0  0  0  0  0  0  0  0  0  0  0
  124.7660  122.9559   85.0997 H   0  0  0  0  0  0  0  0  0  0  0  0
  126.7017  122.5303   86.6191 H   0  0  0  0  0  0  0  0  0  0  0  0
  124.0455  120.7775   89.5332 H   0  0  0  0  0  0  0  0  0  0  0  0
  122.1068  121.1960   88.0180 H   0  0  0  0  0  0  0  0  0  0  0  0
  1  2  1  0
  2  3  1  0
  3  4  1  0
  4  5  1  0
  5  6  2  0
  5  7  1  0
  7  8  1  0
  8  9  2  0
  9 10  1  0
 10 11  2  0
 11 12  1  0
 11 13  1  0
 13 14  2  0
 14  8  1  0
  1 15  1  0
  2 16  1  0
  2 17  1  0
  3 18  1  0
  3 19  1  0
  4 20  1  0
  7 21  1  0
  9 22  1  0
 10 23  1  0
 13 24  1  0
 14 25  1  0
M  END
>  <loss>  (11) 
0.5975877642631531

>  <score>  (11) 
2.6910746097564697

$$$$
FHOSFKLVCXFTBV-UHFFFAOYSA-N
     RDKit          3D

 25 25  0  0  0  0  0  0  0  0999 V2000
  119.6794  125.3900   82.8673 O   0  0  0  0  0  0  0  0  0  0  0  0
  119.8747  123.9907   82.6892 C   0  0  0  0  0  0  0  0  0  0  0  0
  119.4119  123.2162   83.9254 C   0  0  0  0  0  0  0  0  0  0  0  0
  120.4989  122.5147   84.6045 N   0  0  0  0  0  0  0  0  0  0  0  0
  121.0468  122.8302   85.8440 C   0  0  0  0  0  0  0  0  0  0  0  0
  120.1573  122.9582   87.2521 S   0  0  0  0  0  0  0  0  0  0  0  0
  122.4260  122.9432   85.7088 N   0  0  0  0  0  0  0  0  0  0  0  0
  123.4796  122.4534   86.5117 C   0  0  0  0  0  0  0  0  0  0  0  0
  123.1352  121.9473   87.7748 C   0  0  0  0  0  0  0  0  0  0  0  0
  124.1121  121.4176   88.6220 C   0  0  0  0  0  0  0  0  0  0  0  0
  125.4332  121.3773   88.1995 C   0  0  0  0  0  0  0  0  0  0  0  0
  126.3706  120.8663   89.0078 F   0  0  0  0  0  0  0  0  0  0  0  0
  125.7910  121.8478   86.9438 C   0  0  0  0  0  0  0  0  0  0  0  0
  124.8123  122.3783   86.0966 C   0  0  0  0  0  0  0  0  0  0  0  0
  119.6503  125.5987   83.8346 H   0  0  0  0  0  0  0  0  0  0  0  0
  119.2972  123.6542   81.8155 H   0  0  0  0  0  0  0  0  0  0  0  0
  120.9472  123.8010   82.5351 H   0  0  0  0  0  0  0  0  0  0  0  0
  118.9575  123.9255   84.6327 H   0  0  0  0  0  0  0  0  0  0  0  0
  118.6938  122.4555   83.5850 H   0  0  0  0  0  0  0  0  0  0  0  0
  120.9012  121.7026   84.1151 H   0  0  0  0  0  0  0  0  0  0  0  0
  122.7317  123.4752   84.8815 H   0  0  0  0  0  0  0  0  0  0  0  0
  122.0849  121.9678   88.1013 H   0  0  0  0  0  0  0  0  0  0  0  0
  123.8360  121.0357   89.6159 H   0  0  0  0  0  0  0  0  0  0  0  0
  126.8401  121.8038   86.6160 H   0  0  0  0  0  0  0  0  0  0  0  0
  125.0935  122.7390   85.0962 H   0  0  0  0  0  0  0  0  0  0  0  0
  1  2  1  0
  2  3  1  0
  3  4  1  0
  4  5  1  0
  5  6  2  0
  5  7  1  0
  7  8  1  0
  8  9  2  0
  9 10  1  0
 10 11  2  0
 11 12  1  0
 11 13  1  0
 13 14  2  0
 14  8  1  0
  1 15  1  0
  2 16  1  0
  2 17  1  0
  3 18  1  0
  3 19  1  0
  4 20  1  0
  7 21  1  0
  9 22  1  0
 10 23  1  0
 13 24  1  0
 14 25  1  0
M  END
>  <loss>  (12) 
0.612514317035675

>  <score>  (12) 
2.7637898921966553

$$$$
FHOSFKLVCXFTBV-UHFFFAOYSA-N
     RDKit          3D

 25 25  0  0  0  0  0  0  0  0999 V2000
  119.9625  125.5855   83.0915 O   0  0  0  0  0  0  0  0  0  0  0  0
  120.3141  124.2302   82.8313 C   0  0  0  0  0  0  0  0  0  0  0  0
  119.6111  123.2890   83.8123 C   0  0  0  0  0  0  0  0  0  0  0  0
  120.5397  122.4774   84.5958 N   0  0  0  0  0  0  0  0  0  0  0  0
  121.0539  122.7806   85.8527 C   0  0  0  0  0  0  0  0  0  0  0  0
  120.1348  122.8449   87.2460 S   0  0  0  0  0  0  0  0  0  0  0  0
  122.4308  122.9422   85.7467 N   0  0  0  0  0  0  0  0  0  0  0  0
  123.4863  122.4522   86.5471 C   0  0  0  0  0  0  0  0  0  0  0  0
  123.1335  121.8318   87.7558 C   0  0  0  0  0  0  0  0  0  0  0  0
  124.1135  121.2944   88.5945 C   0  0  0  0  0  0  0  0  0  0  0  0
  125.4471  121.3612   88.2168 C   0  0  0  0  0  0  0  0  0  0  0  0
  126.3876  120.8432   89.0169 F   0  0  0  0  0  0  0  0  0  0  0  0
  125.8149  121.9464   87.0133 C   0  0  0  0  0  0  0  0  0  0  0  0
  124.8331  122.4845   86.1745 C   0  0  0  0  0  0  0  0  0  0  0  0
  119.9239  125.7345   84.0695 H   0  0  0  0  0  0  0  0  0  0  0  0
  120.0149  123.9706   81.8051 H   0  0  0  0  0  0  0  0  0  0  0  0
  121.4016  124.1183   82.9528 H   0  0  0  0  0  0  0  0  0  0  0  0
  119.0055  123.8932   84.5037 H   0  0  0  0  0  0  0  0  0  0  0  0
  118.9941  122.5987   83.2183 H   0  0  0  0  0  0  0  0  0  0  0  0
  120.8453  121.5888   84.1740 H   0  0  0  0  0  0  0  0  0  0  0  0
  122.7328  123.5179   84.9478 H   0  0  0  0  0  0  0  0  0  0  0  0
  122.0744  121.7679   88.0458 H   0  0  0  0  0  0  0  0  0  0  0  0
  123.8300  120.8222   89.5467 H   0  0  0  0  0  0  0  0  0  0  0  0
  126.8743  121.9869   86.7201 H   0  0  0  0  0  0  0  0  0  0  0  0
  125.1232  122.9365   85.2145 H   0  0  0  0  0  0  0  0  0  0  0  0
  1  2  1  0
  2  3  1  0
  3  4  1  0
  4  5  1  0
  5  6  2  0
  5  7  1  0
  7  8  1  0
  8  9  2  0
  9 10  1  0
 10 11  2  0
 11 12  1  0
 11 13  1  0
 13 14  2  0
 14  8  1  0
  1 15  1  0
  2 16  1  0
  2 17  1  0
  3 18  1  0
  3 19  1  0
  4 20  1  0
  7 21  1  0
  9 22  1  0
 10 23  1  0
 13 24  1  0
 14 25  1  0
M  END
>  <loss>  (13) 
0.6191858053207397

>  <score>  (13) 
2.7731363773345947

$$$$
FHOSFKLVCXFTBV-UHFFFAOYSA-N
     RDKit          3D

 25 25  0  0  0  0  0  0  0  0999 V2000
  118.3684  123.3654   83.0304 O   0  0  0  0  0  0  0  0  0  0  0  0
  119.6631  122.7603   82.9966 C   0  0  0  0  0  0  0  0  0  0  0  0
  120.7106  123.7722   83.4601 C   0  0  0  0  0  0  0  0  0  0  0  0
  120.6358  123.9904   84.9061 N   0  0  0  0  0  0  0  0  0  0  0  0
  120.9564  123.0884   85.9131 C   0  0  0  0  0  0  0  0  0  0  0  0
  119.9432  122.7579   87.2021 S   0  0  0  0  0  0  0  0  0  0  0  0
  122.2198  122.5597   85.6739 N   0  0  0  0  0  0  0  0  0  0  0  0
  123.2789  122.2188   86.5451 C   0  0  0  0  0  0  0  0  0  0  0  0
  124.5797  122.4999   86.0959 C   0  0  0  0  0  0  0  0  0  0  0  0
  125.6926  122.1798   86.8780 C   0  0  0  0  0  0  0  0  0  0  0  0
  125.5081  121.5613   88.1059 C   0  0  0  0  0  0  0  0  0  0  0  0
  126.5725  121.2498   88.8564 F   0  0  0  0  0  0  0  0  0  0  0  0
  124.2336  121.2501   88.5577 C   0  0  0  0  0  0  0  0  0  0  0  0
  123.1201  121.5719   87.7734 C   0  0  0  0  0  0  0  0  0  0  0  0
  118.0895  123.4958   83.9713 H   0  0  0  0  0  0  0  0  0  0  0  0
  119.6769  121.8864   83.6645 H   0  0  0  0  0  0  0  0  0  0  0  0
  119.8917  122.4403   81.9693 H   0  0  0  0  0  0  0  0  0  0  0  0
  121.7116  123.3937   83.2060 H   0  0  0  0  0  0  0  0  0  0  0  0
  120.5166  124.7294   82.9539 H   0  0  0  0  0  0  0  0  0  0  0  0
  120.3083  124.9180   85.2114 H   0  0  0  0  0  0  0  0  0  0  0  0
  122.4207  122.3842   84.6790 H   0  0  0  0  0  0  0  0  0  0  0  0
  124.7242  122.9781   85.1159 H   0  0  0  0  0  0  0  0  0  0  0  0
  126.7065  122.4164   86.5230 H   0  0  0  0  0  0  0  0  0  0  0  0
  124.0989  120.7521   89.5293 H   0  0  0  0  0  0  0  0  0  0  0  0
  122.1111  121.3132   88.1270 H   0  0  0  0  0  0  0  0  0  0  0  0
  1  2  1  0
  2  3  1  0
  3  4  1  0
  4  5  1  0
  5  6  2  0
  5  7  1  0
  7  8  1  0
  8  9  2  0
  9 10  1  0
 10 11  2  0
 11 12  1  0
 11 13  1  0
 13 14  2  0
 14  8  1  0
  1 15  1  0
  2 16  1  0
  2 17  1  0
  3 18  1  0
  3 19  1  0
  4 20  1  0
  7 21  1  0
  9 22  1  0
 10 23  1  0
 13 24  1  0
 14 25  1  0
M  END
>  <loss>  (14) 
0.5980600714683533

>  <score>  (14) 
2.6629300117492676

$$$$
FHOSFKLVCXFTBV-UHFFFAOYSA-N
     RDKit          3D

 25 25  0  0  0  0  0  0  0  0999 V2000
  118.1337  123.7933   82.8117 O   0  0  0  0  0  0  0  0  0  0  0  0
  119.1661  122.8705   83.1484 C   0  0  0  0  0  0  0  0  0  0  0  0
  120.4960  123.6057   83.3213 C   0  0  0  0  0  0  0  0  0  0  0  0
  120.7096  124.0377   84.7015 N   0  0  0  0  0  0  0  0  0  0  0  0
  121.0276  123.2711   85.7920 C   0  0  0  0  0  0  0  0  0  0  0  0
  120.0623  123.4693   87.1382 S   0  0  0  0  0  0  0  0  0  0  0  0
  122.1230  122.4620   85.6271 N   0  0  0  0  0  0  0  0  0  0  0  0
  123.2059  122.1805   86.4888 C   0  0  0  0  0  0  0  0  0  0  0  0
  123.0768  121.5616   87.7354 C   0  0  0  0  0  0  0  0  0  0  0  0
  124.2073  121.2898   88.5134 C   0  0  0  0  0  0  0  0  0  0  0  0
  125.4676  121.6227   88.0371 C   0  0  0  0  0  0  0  0  0  0  0  0
  126.5488  121.3587   88.7817 F   0  0  0  0  0  0  0  0  0  0  0  0
  125.6213  122.2145   86.7914 C   0  0  0  0  0  0  0  0  0  0  0  0
  124.4917  122.4851   86.0148 C   0  0  0  0  0  0  0  0  0  0  0  0
  117.7301  124.1539   83.6407 H   0  0  0  0  0  0  0  0  0  0  0  0
  118.9068  122.3626   84.0890 H   0  0  0  0  0  0  0  0  0  0  0  0
  119.2664  122.1330   82.3385 H   0  0  0  0  0  0  0  0  0  0  0  0
  121.3146  122.9312   83.0299 H   0  0  0  0  0  0  0  0  0  0  0  0
  120.4726  124.5027   82.6851 H   0  0  0  0  0  0  0  0  0  0  0  0
  120.6080  125.0476   84.8767 H   0  0  0  0  0  0  0  0  0  0  0  0
  122.1623  121.9766   84.7195 H   0  0  0  0  0  0  0  0  0  0  0  0
  122.0789  121.2862   88.1074 H   0  0  0  0  0  0  0  0  0  0  0  0
  124.0976  120.8140   89.4991 H   0  0  0  0  0  0  0  0  0  0  0  0
  126.6244  122.4685   86.4183 H   0  0  0  0  0  0  0  0  0  0  0  0
  124.6112  122.9418   85.0213 H   0  0  0  0  0  0  0  0  0  0  0  0
  1  2  1  0
  2  3  1  0
  3  4  1  0
  4  5  1  0
  5  6  2  0
  5  7  1  0
  7  8  1  0
  8  9  2  0
  9 10  1  0
 10 11  2  0
 11 12  1  0
 11 13  1  0
 13 14  2  0
 14  8  1  0
  1 15  1  0
  2 16  1  0
  2 17  1  0
  3 18  1  0
  3 19  1  0
  4 20  1  0
  7 21  1  0
  9 22  1  0
 10 23  1  0
 13 24  1  0
 14 25  1  0
M  END
>  <loss>  (15) 
0.5968698263168335

>  <score>  (15) 
2.6356868743896484

$$$$
FHOSFKLVCXFTBV-UHFFFAOYSA-N
     RDKit          3D

 25 25  0  0  0  0  0  0  0  0999 V2000
  119.5663  123.8351   81.7353 O   0  0  0  0  0  0  0  0  0  0  0  0
  119.7139  124.5111   82.9862 C   0  0  0  0  0  0  0  0  0  0  0  0
  119.1452  123.6402   84.1061 C   0  0  0  0  0  0  0  0  0  0  0  0
  120.1905  122.8258   84.7291 N   0  0  0  0  0  0  0  0  0  0  0  0
  120.9500  123.1405   85.8492 C   0  0  0  0  0  0  0  0  0  0  0  0
  120.3037  123.8315   87.2283 S   0  0  0  0  0  0  0  0  0  0  0  0
  122.2803  122.8139   85.6113 N   0  0  0  0  0  0  0  0  0  0  0  0
  123.3101  122.3711   86.4716 C   0  0  0  0  0  0  0  0  0  0  0  0
  124.6290  122.5986   86.0452 C   0  0  0  0  0  0  0  0  0  0  0  0
  125.7146  122.1777   86.8179 C   0  0  0  0  0  0  0  0  0  0  0  0
  125.4837  121.5120   88.0128 C   0  0  0  0  0  0  0  0  0  0  0  0
  126.5216  121.1040   88.7541 F   0  0  0  0  0  0  0  0  0  0  0  0
  124.1894  121.2529   88.4406 C   0  0  0  0  0  0  0  0  0  0  0  0
  123.1034  121.6756   87.6658 C   0  0  0  0  0  0  0  0  0  0  0  0
  119.3578  122.8811   81.8984 H   0  0  0  0  0  0  0  0  0  0  0  0
  120.7804  124.7022   83.1760 H   0  0  0  0  0  0  0  0  0  0  0  0
  119.1704  125.4668   82.9530 H   0  0  0  0  0  0  0  0  0  0  0  0
  118.6933  124.2894   84.8705 H   0  0  0  0  0  0  0  0  0  0  0  0
  118.3914  122.9662   83.6732 H   0  0  0  0  0  0  0  0  0  0  0  0
  120.3848  121.9161   84.2868 H   0  0  0  0  0  0  0  0  0  0  0  0
  122.5681  122.9129   84.6272 H   0  0  0  0  0  0  0  0  0  0  0  0
  124.8095  123.1147   85.0907 H   0  0  0  0  0  0  0  0  0  0  0  0
  126.7435  122.3727   86.4815 H   0  0  0  0  0  0  0  0  0  0  0  0
  124.0176  120.7169   89.3857 H   0  0  0  0  0  0  0  0  0  0  0  0
  122.0781  121.4584   87.9997 H   0  0  0  0  0  0  0  0  0  0  0  0
  1  2  1  0
  2  3  1  0
  3  4  1  0
  4  5  1  0
  5  6  2  0
  5  7  1  0
  7  8  1  0
  8  9  2  0
  9 10  1  0
 10 11  2  0
 11 12  1  0
 11 13  1  0
 13 14  2  0
 14  8  1  0
  1 15  1  0
  2 16  1  0
  2 17  1  0
  3 18  1  0
  3 19  1  0
  4 20  1  0
  7 21  1  0
  9 22  1  0
 10 23  1  0
 13 24  1  0
 14 25  1  0
M  END
>  <loss>  (16) 
0.6134816408157349

>  <score>  (16) 
2.646768569946289

$$$$
FHOSFKLVCXFTBV-UHFFFAOYSA-N
     RDKit          3D

 25 25  0  0  0  0  0  0  0  0999 V2000
  119.3175  125.5257   83.0726 O   0  0  0  0  0  0  0  0  0  0  0  0
  119.7183  124.1939   82.7497 C   0  0  0  0  0  0  0  0  0  0  0  0
  119.2967  123.2465   83.8705 C   0  0  0  0  0  0  0  0  0  0  0  0
  120.4665  122.6137   84.4774 N   0  0  0  0  0  0  0  0  0  0  0  0
  120.9380  122.8389   85.7357 C   0  0  0  0  0  0  0  0  0  0  0  0
  120.0345  122.7415   87.1406 S   0  0  0  0  0  0  0  0  0  0  0  0
  122.2472  123.2096   85.8572 N   0  0  0  0  0  0  0  0  0  0  0  0
  123.3371  122.6257   86.5339 C   0  0  0  0  0  0  0  0  0  0  0  0
  124.6486  122.6100   86.0475 C   0  0  0  0  0  0  0  0  0  0  0  0
  125.6674  121.9895   86.7777 C   0  0  0  0  0  0  0  0  0  0  0  0
  125.3712  121.3725   87.9856 C   0  0  0  0  0  0  0  0  0  0  0  0
  126.3482  120.7771   88.6815 F   0  0  0  0  0  0  0  0  0  0  0  0
  124.0722  121.3535   88.4734 C   0  0  0  0  0  0  0  0  0  0  0  0
  123.0548  121.9724   87.7429 C   0  0  0  0  0  0  0  0  0  0  0  0
  119.2857  125.6313   84.0564 H   0  0  0  0  0  0  0  0  0  0  0  0
  119.2385  123.8850   81.8093 H   0  0  0  0  0  0  0  0  0  0  0  0
  120.8116  124.1593   82.6338 H   0  0  0  0  0  0  0  0  0  0  0  0
  118.7538  123.8154   84.6396 H   0  0  0  0  0  0  0  0  0  0  0  0
  118.6495  122.4637   83.4482 H   0  0  0  0  0  0  0  0  0  0  0  0
  120.9823  121.9344   83.9000 H   0  0  0  0  0  0  0  0  0  0  0  0
  122.4823  124.0806   85.3603 H   0  0  0  0  0  0  0  0  0  0  0  0
  124.8800  123.0886   85.0845 H   0  0  0  0  0  0  0  0  0  0  0  0
  126.6992  121.9904   86.3965 H   0  0  0  0  0  0  0  0  0  0  0  0
  123.8454  120.8552   89.4275 H   0  0  0  0  0  0  0  0  0  0  0  0
  122.0216  121.9473   88.1197 H   0  0  0  0  0  0  0  0  0  0  0  0
  1  2  1  0
  2  3  1  0
  3  4  1  0
  4  5  1  0
  5  6  2  0
  5  7  1  0
  7  8  1  0
  8  9  2  0
  9 10  1  0
 10 11  2  0
 11 12  1  0
 11 13  1  0
 13 14  2  0
 14  8  1  0
  1 15  1  0
  2 16  1  0
  2 17  1  0
  3 18  1  0
  3 19  1  0
  4 20  1  0
  7 21  1  0
  9 22  1  0
 10 23  1  0
 13 24  1  0
 14 25  1  0
M  END
>  <loss>  (17) 
0.608376145362854

>  <score>  (17) 
2.608261823654175

$$$$
FHOSFKLVCXFTBV-UHFFFAOYSA-N
     RDKit          3D

 25 25  0  0  0  0  0  0  0  0999 V2000
  118.9607  123.1361   82.0279 O   0  0  0  0  0  0  0  0  0  0  0  0
  118.6924  122.7682   83.3772 C   0  0  0  0  0  0  0  0  0  0  0  0
  119.0132  123.9231   84.3289 C   0  0  0  0  0  0  0  0  0  0  0  0
  119.9296  123.5457   85.4025 N   0  0  0  0  0  0  0  0  0  0  0  0
  121.3201  123.5594   85.3531 C   0  0  0  0  0  0  0  0  0  0  0  0
  122.2183  124.8079   84.7015 S   0  0  0  0  0  0  0  0  0  0  0  0
  121.8024  122.4194   85.9865 N   0  0  0  0  0  0  0  0  0  0  0  0
  123.0344  122.1668   86.6291 C   0  0  0  0  0  0  0  0  0  0  0  0
  122.9782  121.6411   87.9294 C   0  0  0  0  0  0  0  0  0  0  0  0
  124.1499  121.3359   88.6269 C   0  0  0  0  0  0  0  0  0  0  0  0
  125.3799  121.5396   88.0178 C   0  0  0  0  0  0  0  0  0  0  0  0
  126.5040  121.2439   88.6827 F   0  0  0  0  0  0  0  0  0  0  0  0
  125.4571  122.0332   86.7230 C   0  0  0  0  0  0  0  0  0  0  0  0
  124.2835  122.3389   86.0256 C   0  0  0  0  0  0  0  0  0  0  0  0
  119.5441  123.9358   82.0136 H   0  0  0  0  0  0  0  0  0  0  0  0
  117.6288  122.5053   83.4748 H   0  0  0  0  0  0  0  0  0  0  0  0
  119.3251  121.9078   83.6408 H   0  0  0  0  0  0  0  0  0  0  0  0
  119.4710  124.7377   83.7485 H   0  0  0  0  0  0  0  0  0  0  0  0
  118.0679  124.2319   84.7990 H   0  0  0  0  0  0  0  0  0  0  0  0
  119.5021  123.2376   86.2874 H   0  0  0  0  0  0  0  0  0  0  0  0
  121.1494  121.6229   85.9872 H   0  0  0  0  0  0  0  0  0  0  0  0
  122.0013  121.4675   88.4044 H   0  0  0  0  0  0  0  0  0  0  0  0
  124.0976  120.9372   89.6508 H   0  0  0  0  0  0  0  0  0  0  0  0
  126.4373  122.1835   86.2469 H   0  0  0  0  0  0  0  0  0  0  0  0
  124.3440  122.7176   84.9946 H   0  0  0  0  0  0  0  0  0  0  0  0
  1  2  1  0
  2  3  1  0
  3  4  1  0
  4  5  1  0
  5  6  2  0
  5  7  1  0
  7  8  1  0
  8  9  2  0
  9 10  1  0
 10 11  2  0
 11 12  1  0
 11 13  1  0
 13 14  2  0
 14  8  1  0
  1 15  1  0
  2 16  1  0
  2 17  1  0
  3 18  1  0
  3 19  1  0
  4 20  1  0
  7 21  1  0
  9 22  1  0
 10 23  1  0
 13 24  1  0
 14 25  1  0
M  END
>  <loss>  (18) 
0.6105934381484985

>  <score>  (18) 
2.6175403594970703

$$$$
FHOSFKLVCXFTBV-UHFFFAOYSA-N
     RDKit          3D

 25 25  0  0  0  0  0  0  0  0999 V2000
  118.6556  122.5120   82.0430 O   0  0  0  0  0  0  0  0  0  0  0  0
  118.6407  122.5764   83.4655 C   0  0  0  0  0  0  0  0  0  0  0  0
  119.1869  123.9201   83.9539 C   0  0  0  0  0  0  0  0  0  0  0  0
  120.0919  123.7927   85.0938 N   0  0  0  0  0  0  0  0  0  0  0  0
  121.4531  123.5080   85.0481 C   0  0  0  0  0  0  0  0  0  0  0  0
  122.5240  124.2370   83.9936 S   0  0  0  0  0  0  0  0  0  0  0  0
  121.7539  122.5939   86.0518 N   0  0  0  0  0  0  0  0  0  0  0  0
  122.9800  122.2682   86.6723 C   0  0  0  0  0  0  0  0  0  0  0  0
  122.9136  121.6971   87.9529 C   0  0  0  0  0  0  0  0  0  0  0  0
  124.0778  121.3193   88.6269 C   0  0  0  0  0  0  0  0  0  0  0  0
  125.3099  121.4961   88.0135 C   0  0  0  0  0  0  0  0  0  0  0  0
  126.4267  121.1309   88.6558 F   0  0  0  0  0  0  0  0  0  0  0  0
  125.3960  122.0341   86.7371 C   0  0  0  0  0  0  0  0  0  0  0  0
  124.2299  122.4124   86.0632 C   0  0  0  0  0  0  0  0  0  0  0  0
  118.8681  121.5884   81.7567 H   0  0  0  0  0  0  0  0  0  0  0  0
  117.6068  122.4566   83.8213 H   0  0  0  0  0  0  0  0  0  0  0  0
  119.2775  121.7718   83.8618 H   0  0  0  0  0  0  0  0  0  0  0  0
  119.7319  124.3978   83.1263 H   0  0  0  0  0  0  0  0  0  0  0  0
  118.3275  124.5222   84.2841 H   0  0  0  0  0  0  0  0  0  0  0  0
  119.6796  123.9276   86.0280 H   0  0  0  0  0  0  0  0  0  0  0  0
  120.9437  122.0634   86.4028 H   0  0  0  0  0  0  0  0  0  0  0  0
  121.9345  121.5454   88.4308 H   0  0  0  0  0  0  0  0  0  0  0  0
  124.0181  120.8853   89.6359 H   0  0  0  0  0  0  0  0  0  0  0  0
  126.3774  122.1625   86.2571 H   0  0  0  0  0  0  0  0  0  0  0  0
  124.2970  122.8265   85.0463 H   0  0  0  0  0  0  0  0  0  0  0  0
  1  2  1  0
  2  3  1  0
  3  4  1  0
  4  5  1  0
  5  6  2  0
  5  7  1  0
  7  8  1  0
  8  9  2  0
  9 10  1  0
 10 11  2  0
 11 12  1  0
 11 13  1  0
 13 14  2  0
 14  8  1  0
  1 15  1  0
  2 16  1  0
  2 17  1  0
  3 18  1  0
  3 19  1  0
  4 20  1  0
  7 21  1  0
  9 22  1  0
 10 23  1  0
 13 24  1  0
 14 25  1  0
M  END
>  <loss>  (19) 
0.6011711955070496

>  <score>  (19) 
2.5064258575439453

$$$$
FHOSFKLVCXFTBV-UHFFFAOYSA-N
     RDKit          3D

 25 25  0  0  0  0  0  0  0  0999 V2000
  118.7673  122.7567   82.2198 O   0  0  0  0  0  0  0  0  0  0  0  0
  118.4753  123.5188   83.3913 C   0  0  0  0  0  0  0  0  0  0  0  0
  119.6850  124.3743   83.7602 C   0  0  0  0  0  0  0  0  0  0  0  0
  120.3340  123.8570   84.9636 N   0  0  0  0  0  0  0  0  0  0  0  0
  121.5017  123.1563   85.0071 C   0  0  0  0  0  0  0  0  0  0  0  0
  122.5883  123.0049   83.7437 S   0  0  0  0  0  0  0  0  0  0  0  0
  121.7919  122.4934   86.1657 N   0  0  0  0  0  0  0  0  0  0  0  0
  123.0125  122.1868   86.8003 C   0  0  0  0  0  0  0  0  0  0  0  0
  124.2664  122.2977   86.1903 C   0  0  0  0  0  0  0  0  0  0  0  0
  125.4274  121.9525   86.8897 C   0  0  0  0  0  0  0  0  0  0  0  0
  125.3323  121.4825   88.1927 C   0  0  0  0  0  0  0  0  0  0  0  0
  126.4452  121.1504   88.8591 F   0  0  0  0  0  0  0  0  0  0  0  0
  124.0964  121.3397   88.8075 C   0  0  0  0  0  0  0  0  0  0  0  0
  122.9370  121.6837   88.1078 C   0  0  0  0  0  0  0  0  0  0  0  0
  119.1089  121.8654   82.4826 H   0  0  0  0  0  0  0  0  0  0  0  0
  117.6109  124.1710   83.1977 H   0  0  0  0  0  0  0  0  0  0  0  0
  118.2429  122.8368   84.2225 H   0  0  0  0  0  0  0  0  0  0  0  0
  120.4041  124.3615   82.9279 H   0  0  0  0  0  0  0  0  0  0  0  0
  119.3459  125.4025   83.9546 H   0  0  0  0  0  0  0  0  0  0  0  0
  119.8649  124.0392   85.8623 H   0  0  0  0  0  0  0  0  0  0  0  0
  120.9615  122.1532   86.6713 H   0  0  0  0  0  0  0  0  0  0  0  0
  124.3399  122.6587   85.1538 H   0  0  0  0  0  0  0  0  0  0  0  0
  126.4119  122.0529   86.4094 H   0  0  0  0  0  0  0  0  0  0  0  0
  124.0301  120.9589   89.8373 H   0  0  0  0  0  0  0  0  0  0  0  0
  121.9549  121.5586   88.5870 H   0  0  0  0  0  0  0  0  0  0  0  0
  1  2  1  0
  2  3  1  0
  3  4  1  0
  4  5  1  0
  5  6  2  0
  5  7  1  0
  7  8  1  0
  8  9  2  0
  9 10  1  0
 10 11  2  0
 11 12  1  0
 11 13  1  0
 13 14  2  0
 14  8  1  0
  1 15  1  0
  2 16  1  0
  2 17  1  0
  3 18  1  0
  3 19  1  0
  4 20  1  0
  7 21  1  0
  9 22  1  0
 10 23  1  0
 13 24  1  0
 14 25  1  0
M  END
>  <loss>  (20) 
0.6156331896781921

>  <score>  (20) 
2.5185863971710205

$$$$
FHOSFKLVCXFTBV-UHFFFAOYSA-N
     RDKit          3D

 25 25  0  0  0  0  0  0  0  0999 V2000
  120.9033  125.0380   82.8497 O   0  0  0  0  0  0  0  0  0  0  0  0
  121.9413  124.2135   82.3148 C   0  0  0  0  0  0  0  0  0  0  0  0
  122.3384  123.1598   83.3482 C   0  0  0  0  0  0  0  0  0  0  0  0
  122.2595  123.6938   84.7093 N   0  0  0  0  0  0  0  0  0  0  0  0
  121.7448  123.0623   85.8348 C   0  0  0  0  0  0  0  0  0  0  0  0
  120.3891  123.6061   86.6495 S   0  0  0  0  0  0  0  0  0  0  0  0
  122.5401  121.9675   86.1539 N   0  0  0  0  0  0  0  0  0  0  0  0
  123.6146  121.8154   87.0589 C   0  0  0  0  0  0  0  0  0  0  0  0
  124.9085  121.9521   86.5296 C   0  0  0  0  0  0  0  0  0  0  0  0
  126.0350  121.7980   87.3421 C   0  0  0  0  0  0  0  0  0  0  0  0
  125.8706  121.4894   88.6844 C   0  0  0  0  0  0  0  0  0  0  0  0
  126.9478  121.3373   89.4652 F   0  0  0  0  0  0  0  0  0  0  0  0
  124.6025  121.3233   89.2228 C   0  0  0  0  0  0  0  0  0  0  0  0
  123.4754  121.4786   88.4079 C   0  0  0  0  0  0  0  0  0  0  0  0
  120.9372  125.0111   83.8388 H   0  0  0  0  0  0  0  0  0  0  0  0
  121.5805  123.7152   81.4029 H   0  0  0  0  0  0  0  0  0  0  0  0
  122.8151  124.8358   82.0713 H   0  0  0  0  0  0  0  0  0  0  0  0
  121.6594  122.2987   83.2611 H   0  0  0  0  0  0  0  0  0  0  0  0
  123.3778  122.8568   83.1536 H   0  0  0  0  0  0  0  0  0  0  0  0
  122.6273  124.6458   84.8482 H   0  0  0  0  0  0  0  0  0  0  0  0
  122.3024  121.1098   85.6354 H   0  0  0  0  0  0  0  0  0  0  0  0
  125.0367  122.1835   85.4619 H   0  0  0  0  0  0  0  0  0  0  0  0
  127.0437  121.9203   86.9207 H   0  0  0  0  0  0  0  0  0  0  0  0
  124.4835  121.0705   90.2868 H   0  0  0  0  0  0  0  0  0  0  0  0
  122.4712  121.3343   88.8329 H   0  0  0  0  0  0  0  0  0  0  0  0
  1  2  1  0
  2  3  1  0
  3  4  1  0
  4  5  1  0
  5  6  2  0
  5  7  1  0
  7  8  1  0
  8  9  2  0
  9 10  1  0
 10 11  2  0
 11 12  1  0
 11 13  1  0
 13 14  2  0
 14  8  1  0
  1 15  1  0
  2 16  1  0
  2 17  1  0
  3 18  1  0
  3 19  1  0
  4 20  1  0
  7 21  1  0
  9 22  1  0
 10 23  1  0
 13 24  1  0
 14 25  1  0
M  END
>  <loss>  (21) 
0.702798068523407

>  <score>  (21) 
2.8866524696350098

$$$$
FHOSFKLVCXFTBV-UHFFFAOYSA-N
     RDKit          3D

 25 25  0  0  0  0  0  0  0  0999 V2000
  120.4508  123.7624   82.5130 O   0  0  0  0  0  0  0  0  0  0  0  0
  121.6466  122.9984   82.3825 C   0  0  0  0  0  0  0  0  0  0  0  0
  122.7530  123.5959   83.2529 C   0  0  0  0  0  0  0  0  0  0  0  0
  122.2695  123.9579   84.5843 N   0  0  0  0  0  0  0  0  0  0  0  0
  121.9822  123.1301   85.6378 C   0  0  0  0  0  0  0  0  0  0  0  0
  120.6162  123.5062   86.5186 S   0  0  0  0  0  0  0  0  0  0  0  0
  122.8843  122.1157   85.8356 N   0  0  0  0  0  0  0  0  0  0  0  0
  123.8207  121.8962   86.8696 C   0  0  0  0  0  0  0  0  0  0  0  0
  123.4808  121.4897   88.1631 C   0  0  0  0  0  0  0  0  0  0  0  0
  124.4755  121.2634   89.1204 C   0  0  0  0  0  0  0  0  0  0  0  0
  125.8106  121.4282   88.7788 C   0  0  0  0  0  0  0  0  0  0  0  0
  126.7615  121.2078   89.6954 F   0  0  0  0  0  0  0  0  0  0  0  0
  126.1721  121.8063   87.4936 C   0  0  0  0  0  0  0  0  0  0  0  0
  125.1780  122.0317   86.5380 C   0  0  0  0  0  0  0  0  0  0  0  0
  120.2459  123.8933   83.4727 H   0  0  0  0  0  0  0  0  0  0  0  0
  121.4530  121.9633   82.7007 H   0  0  0  0  0  0  0  0  0  0  0  0
  121.9693  123.0139   81.3310 H   0  0  0  0  0  0  0  0  0  0  0  0
  123.5604  122.8563   83.3577 H   0  0  0  0  0  0  0  0  0  0  0  0
  123.1127  124.5123   82.7622 H   0  0  0  0  0  0  0  0  0  0  0  0
  122.1266  124.9641   84.7518 H   0  0  0  0  0  0  0  0  0  0  0  0
  122.8775  121.3900   85.1047 H   0  0  0  0  0  0  0  0  0  0  0  0
  122.4233  121.3468   88.4303 H   0  0  0  0  0  0  0  0  0  0  0  0
  124.2006  120.9559   90.1402 H   0  0  0  0  0  0  0  0  0  0  0  0
  127.2330  121.9276   87.2292 H   0  0  0  0  0  0  0  0  0  0  0  0
  125.4620  122.3184   85.5147 H   0  0  0  0  0  0  0  0  0  0  0  0
  1  2  1  0
  2  3  1  0
  3  4  1  0
  4  5  1  0
  5  6  2  0
  5  7  1  0
  7  8  1  0
  8  9  2  0
  9 10  1  0
 10 11  2  0
 11 12  1  0
 11 13  1  0
 13 14  2  0
 14  8  1  0
  1 15  1  0
  2 16  1  0
  2 17  1  0
  3 18  1  0
  3 19  1  0
  4 20  1  0
  7 21  1  0
  9 22  1  0
 10 23  1  0
 13 24  1  0
 14 25  1  0
M  END
>  <loss>  (22) 
0.6984145045280457

>  <score>  (22) 
2.8383708000183105

$$$$
FHOSFKLVCXFTBV-UHFFFAOYSA-N
     RDKit          3D

 25 25  0  0  0  0  0  0  0  0999 V2000
  120.7094  123.2502   82.1752 O   0  0  0  0  0  0  0  0  0  0  0  0
  121.4015  124.3038   82.8377 C   0  0  0  0  0  0  0  0  0  0  0  0
  122.7860  123.8400   83.2961 C   0  0  0  0  0  0  0  0  0  0  0  0
  122.7390  122.9380   84.4446 N   0  0  0  0  0  0  0  0  0  0  0  0
  123.8264  122.4195   85.1408 C   0  0  0  0  0  0  0  0  0  0  0  0
  125.0752  121.5727   84.4242 S   0  0  0  0  0  0  0  0  0  0  0  0
  123.7187  122.7857   86.4778 N   0  0  0  0  0  0  0  0  0  0  0  0
  123.0623  122.1601   87.5606 C   0  0  0  0  0  0  0  0  0  0  0  0
  121.6929  122.4268   87.7148 C   0  0  0  0  0  0  0  0  0  0  0  0
  120.9606  121.8275   88.7430 C   0  0  0  0  0  0  0  0  0  0  0  0
  121.5935  120.9464   89.6082 C   0  0  0  0  0  0  0  0  0  0  0  0
  120.8929  120.3676   90.5917 F   0  0  0  0  0  0  0  0  0  0  0  0
  122.9405  120.6483   89.4568 C   0  0  0  0  0  0  0  0  0  0  0  0
  123.6729  121.2492   88.4273 C   0  0  0  0  0  0  0  0  0  0  0  0
  120.3106  122.6432   82.8479 H   0  0  0  0  0  0  0  0  0  0  0  0
  121.5157  125.1514   82.1459 H   0  0  0  0  0  0  0  0  0  0  0  0
  120.8204  124.6068   83.7212 H   0  0  0  0  0  0  0  0  0  0  0  0
  123.2741  123.3170   82.4605 H   0  0  0  0  0  0  0  0  0  0  0  0
  123.3451  124.7352   83.6058 H   0  0  0  0  0  0  0  0  0  0  0  0
  121.8040  122.6570   84.7729 H   0  0  0  0  0  0  0  0  0  0  0  0
  124.2001  123.6634   86.7201 H   0  0  0  0  0  0  0  0  0  0  0  0
  121.1908  123.1149   87.0188 H   0  0  0  0  0  0  0  0  0  0  0  0
  119.8908  122.0525   88.8655 H   0  0  0  0  0  0  0  0  0  0  0  0
  123.4304  119.9424   90.1436 H   0  0  0  0  0  0  0  0  0  0  0  0
  124.7373  121.0029   88.2990 H   0  0  0  0  0  0  0  0  0  0  0  0
  1  2  1  0
  2  3  1  0
  3  4  1  0
  4  5  1  0
  5  6  2  0
  5  7  1  0
  7  8  1  0
  8  9  2  0
  9 10  1  0
 10 11  2  0
 11 12  1  0
 11 13  1  0
 13 14  2  0
 14  8  1  0
  1 15  1  0
  2 16  1  0
  2 17  1  0
  3 18  1  0
  3 19  1  0
  4 20  1  0
  7 21  1  0
  9 22  1  0
 10 23  1  0
 13 24  1  0
 14 25  1  0
M  END
>  <loss>  (23) 
0.7293686270713806

>  <score>  (23) 
2.22688364982605

$$$$
FHOSFKLVCXFTBV-UHFFFAOYSA-N
     RDKit          3D

 25 25  0  0  0  0  0  0  0  0999 V2000
  120.0692  123.2130   92.1831 O   0  0  0  0  0  0  0  0  0  0  0  0
  120.1201  121.8589   91.7330 C   0  0  0  0  0  0  0  0  0  0  0  0
  121.5761  121.4233   91.5847 C   0  0  0  0  0  0  0  0  0  0  0  0
  121.8781  121.1019   90.1909 N   0  0  0  0  0  0  0  0  0  0  0  0
  123.0529  120.5970   89.7205 C   0  0  0  0  0  0  0  0  0  0  0  0
  123.6813  119.0929   90.0981 S   0  0  0  0  0  0  0  0  0  0  0  0
  123.7962  121.3988   88.9015 N   0  0  0  0  0  0  0  0  0  0  0  0
  123.5464  121.9364   87.6227 C   0  0  0  0  0  0  0  0  0  0  0  0
  122.2691  122.1796   87.1068 C   0  0  0  0  0  0  0  0  0  0  0  0
  122.1130  122.6978   85.8172 C   0  0  0  0  0  0  0  0  0  0  0  0
  123.2332  122.9579   85.0393 C   0  0  0  0  0  0  0  0  0  0  0  0
  123.0807  123.4518   83.8040 F   0  0  0  0  0  0  0  0  0  0  0  0
  124.5083  122.6991   85.5218 C   0  0  0  0  0  0  0  0  0  0  0  0
  124.6635  122.1803   86.8097 C   0  0  0  0  0  0  0  0  0  0  0  0
  120.0685  123.2319   93.1729 H   0  0  0  0  0  0  0  0  0  0  0  0
  119.6167  121.2105   92.4653 H   0  0  0  0  0  0  0  0  0  0  0  0
  119.6134  121.7779   90.7600 H   0  0  0  0  0  0  0  0  0  0  0  0
  122.2334  122.2399   91.9178 H   0  0  0  0  0  0  0  0  0  0  0  0
  121.7419  120.5261   92.1992 H   0  0  0  0  0  0  0  0  0  0  0  0
  121.1334  121.2730   89.5002 H   0  0  0  0  0  0  0  0  0  0  0  0
  124.7126  121.6600   89.2925 H   0  0  0  0  0  0  0  0  0  0  0  0
  121.3818  121.9619   87.7194 H   0  0  0  0  0  0  0  0  0  0  0  0
  121.1067  122.8985   85.4208 H   0  0  0  0  0  0  0  0  0  0  0  0
  125.3897  122.9007   84.8953 H   0  0  0  0  0  0  0  0  0  0  0  0
  125.6719  121.9608   87.1902 H   0  0  0  0  0  0  0  0  0  0  0  0
  1  2  1  0
  2  3  1  0
  3  4  1  0
  4  5  1  0
  5  6  2  0
  5  7  1  0
  7  8  1  0
  8  9  2  0
  9 10  1  0
 10 11  2  0
 11 12  1  0
 11 13  1  0
 13 14  2  0
 14  8  1  0
  1 15  1  0
  2 16  1  0
  2 17  1  0
  3 18  1  0
  3 19  1  0
  4 20  1  0
  7 21  1  0
  9 22  1  0
 10 23  1  0
 13 24  1  0
 14 25  1  0
M  END
>  <loss>  (24) 
0.7751336097717285

>  <score>  (24) 
-1.4239683151245117

$$$$
FHOSFKLVCXFTBV-UHFFFAOYSA-N
     RDKit          3D

 25 25  0  0  0  0  0  0  0  0999 V2000
  119.1861  121.8569   91.7878 O   0  0  0  0  0  0  0  0  0  0  0  0
  120.5090  122.3358   91.9911 C   0  0  0  0  0  0  0  0  0  0  0  0
  121.5119  121.2391   91.6427 C   0  0  0  0  0  0  0  0  0  0  0  0
  122.4362  121.6373   90.5889 N   0  0  0  0  0  0  0  0  0  0  0  0
  123.1349  120.8203   89.7363 C   0  0  0  0  0  0  0  0  0  0  0  0
  124.3857  119.9552   90.4243 S   0  0  0  0  0  0  0  0  0  0  0  0
  122.6816  120.8122   88.4413 N   0  0  0  0  0  0  0  0  0  0  0  0
  122.9771  121.6402   87.3355 C   0  0  0  0  0  0  0  0  0  0  0  0
  124.2673  121.9489   86.8965 C   0  0  0  0  0  0  0  0  0  0  0  0
  124.4621  122.8009   85.8034 C   0  0  0  0  0  0  0  0  0  0  0  0
  123.3663  123.3565   85.1584 C   0  0  0  0  0  0  0  0  0  0  0  0
  123.5554  124.1740   84.1147 F   0  0  0  0  0  0  0  0  0  0  0  0
  122.0769  123.0843   85.5911 C   0  0  0  0  0  0  0  0  0  0  0  0
  121.8840  122.2336   86.6829 C   0  0  0  0  0  0  0  0  0  0  0  0
  118.7534  121.7003   92.6644 H   0  0  0  0  0  0  0  0  0  0  0  0
  120.6845  123.2099   91.3469 H   0  0  0  0  0  0  0  0  0  0  0  0
  120.6346  122.6229   93.0455 H   0  0  0  0  0  0  0  0  0  0  0  0
  122.0915  120.9926   92.5446 H   0  0  0  0  0  0  0  0  0  0  0  0
  120.9428  120.3723   91.2758 H   0  0  0  0  0  0  0  0  0  0  0  0
  122.5819  122.6500   90.4702 H   0  0  0  0  0  0  0  0  0  0  0  0
  122.0013  120.0659   88.2383 H   0  0  0  0  0  0  0  0  0  0  0  0
  125.1371  121.5185   87.4143 H   0  0  0  0  0  0  0  0  0  0  0  0
  125.4807  123.0295   85.4568 H   0  0  0  0  0  0  0  0  0  0  0  0
  121.2134  123.5342   85.0793 H   0  0  0  0  0  0  0  0  0  0  0  0
  120.8630  122.0260   87.0357 H   0  0  0  0  0  0  0  0  0  0  0  0
  1  2  1  0
  2  3  1  0
  3  4  1  0
  4  5  1  0
  5  6  2  0
  5  7  1  0
  7  8  1  0
  8  9  2  0
  9 10  1  0
 10 11  2  0
 11 12  1  0
 11 13  1  0
 13 14  2  0
 14  8  1  0
  1 15  1  0
  2 16  1  0
  2 17  1  0
  3 18  1  0
  3 19  1  0
  4 20  1  0
  7 21  1  0
  9 22  1  0
 10 23  1  0
 13 24  1  0
 14 25  1  0
M  END
>  <loss>  (25) 
0.7647576332092285

>  <score>  (25) 
-5.21661376953125

$$$$
