GVZIHTVADXTMQR-UHFFFAOYSA-N
     RDKit          3D

 24 24  0  0  0  0  0  0  0  0999 V2000
  125.5072  121.4392   92.1202 N   0  0  0  0  0  0  0  0  0  0  0  0
  125.9537  121.0718   90.9668 C   0  0  0  0  0  0  0  0  0  0  0  0
  127.2659  120.8122   90.7809 N   0  0  0  0  0  0  0  0  0  0  0  0
  125.1358  120.9256   89.8968 N   0  0  0  0  0  0  0  0  0  0  0  0
  123.8517  120.8186   89.9966 C   0  0  0  0  0  0  0  0  0  0  0  0
  123.1351  120.8018   91.1622 N   0  0  0  0  0  0  0  0  0  0  0  0
  122.9754  120.6697   88.9535 N   0  0  0  0  0  0  0  0  0  0  0  0
  122.7954  121.4911   87.8259 C   0  0  0  0  0  0  0  0  0  0  0  0
  121.6316  122.2749   87.7403 C   0  0  0  0  0  0  0  0  0  0  0  0
  121.4081  123.1298   86.6556 C   0  0  0  0  0  0  0  0  0  0  0  0
  122.3585  123.2211   85.6445 C   0  0  0  0  0  0  0  0  0  0  0  0
  122.0649  124.3747   84.1772 Br  0  0  0  0  0  0  0  0  0  0  0  0
  123.5278  122.4716   85.7145 C   0  0  0  0  0  0  0  0  0  0  0  0
  123.7431  121.6180   86.8030 C   0  0  0  0  0  0  0  0  0  0  0  0
  124.5035  121.6335   92.2459 H   0  0  0  0  0  0  0  0  0  0  0  0
  127.6068  120.5198   89.8539 H   0  0  0  0  0  0  0  0  0  0  0  0
  127.9259  120.9067   91.5660 H   0  0  0  0  0  0  0  0  0  0  0  0
  122.1094  120.7122   91.1349 H   0  0  0  0  0  0  0  0  0  0  0  0
  123.6215  120.8788   92.0669 H   0  0  0  0  0  0  0  0  0  0  0  0
  122.3641  119.8421   89.0019 H   0  0  0  0  0  0  0  0  0  0  0  0
  120.8814  122.2147   88.5425 H   0  0  0  0  0  0  0  0  0  0  0  0
  120.4855  123.7266   86.6029 H   0  0  0  0  0  0  0  0  0  0  0  0
  124.2814  122.5493   84.9170 H   0  0  0  0  0  0  0  0  0  0  0  0
  124.6747  121.0356   86.8557 H   0  0  0  0  0  0  0  0  0  0  0  0
  1  2  2  3
  2  3  1  0
  2  4  1  0
  4  5  2  3
  5  6  1  0
  5  7  1  0
  7  8  1  0
  8  9  2  0
  9 10  1  0
 10 11  2  0
 11 12  1  0
 11 13  1  0
 13 14  2  0
 14  8  1  0
  1 15  1  0
  3 16  1  0
  3 17  1  0
  6 18  1  0
  6 19  1  0
  7 20  1  0
  9 21  1  0
 10 22  1  0
 13 23  1  0
 14 24  1  0
M  END
>  <loss>  (1) 
0.6356406211853027

>  <score>  (1) 
2.8177695274353027

$$$$
GVZIHTVADXTMQR-UHFFFAOYSA-N
     RDKit          3D

 24 24  0  0  0  0  0  0  0  0999 V2000
  125.4864  121.3570   92.1463 N   0  0  0  0  0  0  0  0  0  0  0  0
  125.9500  121.0481   90.9825 C   0  0  0  0  0  0  0  0  0  0  0  0
  127.2753  120.8857   90.7821 N   0  0  0  0  0  0  0  0  0  0  0  0
  125.1365  120.9230   89.9066 N   0  0  0  0  0  0  0  0  0  0  0  0
  123.8516  120.8276   90.0126 C   0  0  0  0  0  0  0  0  0  0  0  0
  123.1410  120.8250   91.1825 N   0  0  0  0  0  0  0  0  0  0  0  0
  122.9669  120.6846   88.9751 N   0  0  0  0  0  0  0  0  0  0  0  0
  122.7932  121.5029   87.8437 C   0  0  0  0  0  0  0  0  0  0  0  0
  123.7432  121.6203   86.8220 C   0  0  0  0  0  0  0  0  0  0  0  0
  123.5371  122.4749   85.7325 C   0  0  0  0  0  0  0  0  0  0  0  0
  122.3754  123.2361   85.6612 C   0  0  0  0  0  0  0  0  0  0  0  0
  122.0944  124.3915   84.1928 Br  0  0  0  0  0  0  0  0  0  0  0  0
  121.4238  123.1556   86.6721 C   0  0  0  0  0  0  0  0  0  0  0  0
  121.6383  122.2995   87.7576 C   0  0  0  0  0  0  0  0  0  0  0  0
  124.4723  121.4770   92.2814 H   0  0  0  0  0  0  0  0  0  0  0  0
  127.6282  120.6391   89.8464 H   0  0  0  0  0  0  0  0  0  0  0  0
  127.9334  121.0086   91.5648 H   0  0  0  0  0  0  0  0  0  0  0  0
  122.1144  120.7440   91.1613 H   0  0  0  0  0  0  0  0  0  0  0  0
  123.6329  120.9041   92.0839 H   0  0  0  0  0  0  0  0  0  0  0  0
  122.3442  119.8661   89.0316 H   0  0  0  0  0  0  0  0  0  0  0  0
  124.6695  121.0295   86.8763 H   0  0  0  0  0  0  0  0  0  0  0  0
  124.2917  122.5441   84.9352 H   0  0  0  0  0  0  0  0  0  0  0  0
  120.5074  123.7618   86.6185 H   0  0  0  0  0  0  0  0  0  0  0  0
  120.8878  122.2487   88.5602 H   0  0  0  0  0  0  0  0  0  0  0  0
  1  2  2  3
  2  3  1  0
  2  4  1  0
  4  5  2  3
  5  6  1  0
  5  7  1  0
  7  8  1  0
  8  9  2  0
  9 10  1  0
 10 11  2  0
 11 12  1  0
 11 13  1  0
 13 14  2  0
 14  8  1  0
  1 15  1  0
  3 16  1  0
  3 17  1  0
  6 18  1  0
  6 19  1  0
  7 20  1  0
  9 21  1  0
 10 22  1  0
 13 23  1  0
 14 24  1  0
M  END
>  <loss>  (2) 
0.6372693181037903

>  <score>  (2) 
2.8107359409332275

$$$$
GVZIHTVADXTMQR-UHFFFAOYSA-N
     RDKit          3D

 24 24  0  0  0  0  0  0  0  0999 V2000
  125.4594  121.6802   91.9618 N   0  0  0  0  0  0  0  0  0  0  0  0
  125.9176  121.0385   90.9497 C   0  0  0  0  0  0  0  0  0  0  0  0
  127.1469  120.4818   90.9853 N   0  0  0  0  0  0  0  0  0  0  0  0
  125.1330  120.9971   89.8537 N   0  0  0  0  0  0  0  0  0  0  0  0
  123.8681  120.7629   89.9850 C   0  0  0  0  0  0  0  0  0  0  0  0
  123.2105  120.5515   91.1680 N   0  0  0  0  0  0  0  0  0  0  0  0
  122.9515  120.7062   88.9674 N   0  0  0  0  0  0  0  0  0  0  0  0
  122.8072  121.5581   87.8542 C   0  0  0  0  0  0  0  0  0  0  0  0
  123.7383  121.6439   86.8123 C   0  0  0  0  0  0  0  0  0  0  0  0
  123.5188  122.4755   85.7071 C   0  0  0  0  0  0  0  0  0  0  0  0
  122.3482  123.2212   85.6234 C   0  0  0  0  0  0  0  0  0  0  0  0
  122.0483  124.3417   84.1321 Br  0  0  0  0  0  0  0  0  0  0  0  0
  121.3935  123.1369   86.6304 C   0  0  0  0  0  0  0  0  0  0  0  0
  121.6211  122.3041   87.7315 C   0  0  0  0  0  0  0  0  0  0  0  0
  124.5200  122.1007   91.9228 H   0  0  0  0  0  0  0  0  0  0  0  0
  127.5040  119.9690   90.1665 H   0  0  0  0  0  0  0  0  0  0  0  0
  127.7278  120.5698   91.8313 H   0  0  0  0  0  0  0  0  0  0  0  0
  122.1962  120.3721   91.1685 H   0  0  0  0  0  0  0  0  0  0  0  0
  123.7303  120.5719   92.0569 H   0  0  0  0  0  0  0  0  0  0  0  0
  122.2735  119.9329   89.0244 H   0  0  0  0  0  0  0  0  0  0  0  0
  124.6605  121.0465   86.8628 H   0  0  0  0  0  0  0  0  0  0  0  0
  124.2709  122.5386   84.9069 H   0  0  0  0  0  0  0  0  0  0  0  0
  120.4643  123.7217   86.5620 H   0  0  0  0  0  0  0  0  0  0  0  0
  120.8558  122.2312   88.5182 H   0  0  0  0  0  0  0  0  0  0  0  0
  1  2  2  3
  2  3  1  0
  2  4  1  0
  4  5  2  3
  5  6  1  0
  5  7  1  0
  7  8  1  0
  8  9  2  0
  9 10  1  0
 10 11  2  0
 11 12  1  0
 11 13  1  0
 13 14  2  0
 14  8  1  0
  1 15  1  0
  3 16  1  0
  3 17  1  0
  6 18  1  0
  6 19  1  0
  7 20  1  0
  9 21  1  0
 10 22  1  0
 13 23  1  0
 14 24  1  0
M  END
>  <loss>  (3) 
0.64164137840271

>  <score>  (3) 
2.7371275424957275

$$$$
GVZIHTVADXTMQR-UHFFFAOYSA-N
     RDKit          3D

 24 24  0  0  0  0  0  0  0  0999 V2000
  126.2958  121.7149   91.3266 N   0  0  0  0  0  0  0  0  0  0  0  0
  125.8364  120.6561   90.7499 C   0  0  0  0  0  0  0  0  0  0  0  0
  126.2791  119.4281   91.0947 N   0  0  0  0  0  0  0  0  0  0  0  0
  124.9317  120.7334   89.7445 N   0  0  0  0  0  0  0  0  0  0  0  0
  123.6587  120.8062   89.9574 C   0  0  0  0  0  0  0  0  0  0  0  0
  123.0487  120.8035   91.1827 N   0  0  0  0  0  0  0  0  0  0  0  0
  122.6843  120.8723   88.9953 N   0  0  0  0  0  0  0  0  0  0  0  0
  122.6696  121.6201   87.8035 C   0  0  0  0  0  0  0  0  0  0  0  0
  123.7325  121.6430   86.8926 C   0  0  0  0  0  0  0  0  0  0  0  0
  123.6822  122.4308   85.7365 C   0  0  0  0  0  0  0  0  0  0  0  0
  122.5646  123.2196   85.4856 C   0  0  0  0  0  0  0  0  0  0  0  0
  122.4938  124.2850   83.9267 Br  0  0  0  0  0  0  0  0  0  0  0  0
  121.5026  123.2329   86.3833 C   0  0  0  0  0  0  0  0  0  0  0  0
  121.5617  122.4431   87.5366 C   0  0  0  0  0  0  0  0  0  0  0  0
  125.9468  122.6439   91.0511 H   0  0  0  0  0  0  0  0  0  0  0  0
  125.9014  118.5935   90.6239 H   0  0  0  0  0  0  0  0  0  0  0  0
  126.9946  119.3259   91.8285 H   0  0  0  0  0  0  0  0  0  0  0  0
  122.0226  120.8658   91.2474 H   0  0  0  0  0  0  0  0  0  0  0  0
  123.6158  120.7393   92.0402 H   0  0  0  0  0  0  0  0  0  0  0  0
  121.8487  120.2956   89.1685 H   0  0  0  0  0  0  0  0  0  0  0  0
  124.6246  121.0301   87.0892 H   0  0  0  0  0  0  0  0  0  0  0  0
  124.5241  122.4260   85.0285 H   0  0  0  0  0  0  0  0  0  0  0  0
  120.6210  123.8609   86.1876 H   0  0  0  0  0  0  0  0  0  0  0  0
  120.7239  122.4666   88.2491 H   0  0  0  0  0  0  0  0  0  0  0  0
  1  2  2  3
  2  3  1  0
  2  4  1  0
  4  5  2  3
  5  6  1  0
  5  7  1  0
  7  8  1  0
  8  9  2  0
  9 10  1  0
 10 11  2  0
 11 12  1  0
 11 13  1  0
 13 14  2  0
 14  8  1  0
  1 15  1  0
  3 16  1  0
  3 17  1  0
  6 18  1  0
  6 19  1  0
  7 20  1  0
  9 21  1  0
 10 22  1  0
 13 23  1  0
 14 24  1  0
M  END
>  <loss>  (4) 
0.6152363419532776

>  <score>  (4) 
2.5679516792297363

$$$$
GVZIHTVADXTMQR-UHFFFAOYSA-N
     RDKit          3D

 24 24  0  0  0  0  0  0  0  0999 V2000
  125.8564  120.1533   91.9419 N   0  0  0  0  0  0  0  0  0  0  0  0
  125.9270  121.0103   90.9848 C   0  0  0  0  0  0  0  0  0  0  0  0
  126.7523  122.0679   91.0750 N   0  0  0  0  0  0  0  0  0  0  0  0
  125.1529  120.8473   89.8895 N   0  0  0  0  0  0  0  0  0  0  0  0
  123.8642  120.8104   89.9849 C   0  0  0  0  0  0  0  0  0  0  0  0
  123.1490  120.8793   91.1513 N   0  0  0  0  0  0  0  0  0  0  0  0
  122.9816  120.6705   88.9466 N   0  0  0  0  0  0  0  0  0  0  0  0
  122.7986  121.4852   87.8115 C   0  0  0  0  0  0  0  0  0  0  0  0
  123.7509  121.6427   86.7979 C   0  0  0  0  0  0  0  0  0  0  0  0
  123.5283  122.5057   85.7174 C   0  0  0  0  0  0  0  0  0  0  0  0
  122.3498  123.2401   85.6487 C   0  0  0  0  0  0  0  0  0  0  0  0
  122.0487  124.4071   84.1938 Br  0  0  0  0  0  0  0  0  0  0  0  0
  121.3960  123.1238   86.6532 C   0  0  0  0  0  0  0  0  0  0  0  0
  121.6260  122.2585   87.7284 C   0  0  0  0  0  0  0  0  0  0  0  0
  125.2215  119.3460   91.8645 H   0  0  0  0  0  0  0  0  0  0  0  0
  126.8026  122.7491   90.3041 H   0  0  0  0  0  0  0  0  0  0  0  0
  127.3343  122.1968   91.9149 H   0  0  0  0  0  0  0  0  0  0  0  0
  122.1200  120.8418   91.1274 H   0  0  0  0  0  0  0  0  0  0  0  0
  123.6404  120.9687   92.0521 H   0  0  0  0  0  0  0  0  0  0  0  0
  122.3614  119.8501   89.0039 H   0  0  0  0  0  0  0  0  0  0  0  0
  124.6930  121.0773   86.8510 H   0  0  0  0  0  0  0  0  0  0  0  0
  124.2847  122.6024   84.9246 H   0  0  0  0  0  0  0  0  0  0  0  0
  120.4657  123.7086   86.6030 H   0  0  0  0  0  0  0  0  0  0  0  0
  120.8732  122.1810   88.5267 H   0  0  0  0  0  0  0  0  0  0  0  0
  1  2  2  3
  2  3  1  0
  2  4  1  0
  4  5  2  3
  5  6  1  0
  5  7  1  0
  7  8  1  0
  8  9  2  0
  9 10  1  0
 10 11  2  0
 11 12  1  0
 11 13  1  0
 13 14  2  0
 14  8  1  0
  1 15  1  0
  3 16  1  0
  3 17  1  0
  6 18  1  0
  6 19  1  0
  7 20  1  0
  9 21  1  0
 10 22  1  0
 13 23  1  0
 14 24  1  0
M  END
>  <loss>  (5) 
0.6393725275993347

>  <score>  (5) 
2.6828131675720215

$$$$
GVZIHTVADXTMQR-UHFFFAOYSA-N
     RDKit          3D

 24 24  0  0  0  0  0  0  0  0999 V2000
  126.4669  121.7460   91.1606 N   0  0  0  0  0  0  0  0  0  0  0  0
  125.9262  120.6721   90.6924 C   0  0  0  0  0  0  0  0  0  0  0  0
  126.2516  119.4584   91.1873 N   0  0  0  0  0  0  0  0  0  0  0  0
  125.0115  120.7088   89.6938 N   0  0  0  0  0  0  0  0  0  0  0  0
  123.7378  120.7759   89.9026 C   0  0  0  0  0  0  0  0  0  0  0  0
  123.1235  120.7862   91.1253 N   0  0  0  0  0  0  0  0  0  0  0  0
  122.7672  120.8164   88.9359 N   0  0  0  0  0  0  0  0  0  0  0  0
  122.7173  121.5947   87.7653 C   0  0  0  0  0  0  0  0  0  0  0  0
  121.5962  122.4139   87.5464 C   0  0  0  0  0  0  0  0  0  0  0  0
  121.5005  123.2290   86.4133 C   0  0  0  0  0  0  0  0  0  0  0  0
  122.5379  123.2440   85.4872 C   0  0  0  0  0  0  0  0  0  0  0  0
  122.4169  124.3434   83.9553 Br  0  0  0  0  0  0  0  0  0  0  0  0
  123.6671  122.4581   85.6896 C   0  0  0  0  0  0  0  0  0  0  0  0
  123.7543  121.6447   86.8257 C   0  0  0  0  0  0  0  0  0  0  0  0
  126.2082  122.6643   90.7723 H   0  0  0  0  0  0  0  0  0  0  0  0
  125.8111  118.6105   90.8028 H   0  0  0  0  0  0  0  0  0  0  0  0
  126.9402  119.3807   91.9493 H   0  0  0  0  0  0  0  0  0  0  0  0
  122.0968  120.8424   91.1854 H   0  0  0  0  0  0  0  0  0  0  0  0
  123.6879  120.7377   91.9856 H   0  0  0  0  0  0  0  0  0  0  0  0
  121.9633  120.1906   89.0875 H   0  0  0  0  0  0  0  0  0  0  0  0
  120.7775  122.4142   88.2810 H   0  0  0  0  0  0  0  0  0  0  0  0
  120.6095  123.8546   86.2558 H   0  0  0  0  0  0  0  0  0  0  0  0
  124.4894  122.4754   84.9592 H   0  0  0  0  0  0  0  0  0  0  0  0
  124.6549  121.0332   86.9834 H   0  0  0  0  0  0  0  0  0  0  0  0
  1  2  2  3
  2  3  1  0
  2  4  1  0
  4  5  2  3
  5  6  1  0
  5  7  1  0
  7  8  1  0
  8  9  2  0
  9 10  1  0
 10 11  2  0
 11 12  1  0
 11 13  1  0
 13 14  2  0
 14  8  1  0
  1 15  1  0
  3 16  1  0
  3 17  1  0
  6 18  1  0
  6 19  1  0
  7 20  1  0
  9 21  1  0
 10 22  1  0
 13 23  1  0
 14 24  1  0
M  END
>  <loss>  (6) 
0.6144342422485352

>  <score>  (6) 
2.51306414604187

$$$$
GVZIHTVADXTMQR-UHFFFAOYSA-N
     RDKit          3D

 24 24  0  0  0  0  0  0  0  0999 V2000
  126.4369  119.9713   91.2972 N   0  0  0  0  0  0  0  0  0  0  0  0
  125.6084  120.9408   91.1494 C   0  0  0  0  0  0  0  0  0  0  0  0
  125.5412  121.9277   92.0667 N   0  0  0  0  0  0  0  0  0  0  0  0
  124.8658  120.9177   90.0230 N   0  0  0  0  0  0  0  0  0  0  0  0
  123.5803  120.8004   90.0894 C   0  0  0  0  0  0  0  0  0  0  0  0
  122.8409  120.7088   91.2393 N   0  0  0  0  0  0  0  0  0  0  0  0
  122.7194  120.7624   89.0242 N   0  0  0  0  0  0  0  0  0  0  0  0
  122.6691  121.5850   87.8822 C   0  0  0  0  0  0  0  0  0  0  0  0
  121.4954  122.3223   87.6414 C   0  0  0  0  0  0  0  0  0  0  0  0
  121.3608  123.1317   86.5080 C   0  0  0  0  0  0  0  0  0  0  0  0
  122.3995  123.2023   85.5868 C   0  0  0  0  0  0  0  0  0  0  0  0
  122.2262  124.2914   84.0529 Br  0  0  0  0  0  0  0  0  0  0  0  0
  123.5618  122.4665   85.7883 C   0  0  0  0  0  0  0  0  0  0  0  0
  123.6879  121.6585   86.9254 C   0  0  0  0  0  0  0  0  0  0  0  0
  126.4828  119.2212   90.5929 H   0  0  0  0  0  0  0  0  0  0  0  0
  124.8741  122.7025   91.9417 H   0  0  0  0  0  0  0  0  0  0  0  0
  126.1570  121.9065   92.8921 H   0  0  0  0  0  0  0  0  0  0  0  0
  121.8163  120.6176   91.1869 H   0  0  0  0  0  0  0  0  0  0  0  0
  123.3097  120.7312   92.1562 H   0  0  0  0  0  0  0  0  0  0  0  0
  122.0033  120.0231   89.0646 H   0  0  0  0  0  0  0  0  0  0  0  0
  120.6650  122.2611   88.3602 H   0  0  0  0  0  0  0  0  0  0  0  0
  120.4383  123.7088   86.3468 H   0  0  0  0  0  0  0  0  0  0  0  0
  124.3810  122.5188   85.0559 H   0  0  0  0  0  0  0  0  0  0  0  0
  124.6060  121.0700   87.0693 H   0  0  0  0  0  0  0  0  0  0  0  0
  1  2  2  3
  2  3  1  0
  2  4  1  0
  4  5  2  3
  5  6  1  0
  5  7  1  0
  7  8  1  0
  8  9  2  0
  9 10  1  0
 10 11  2  0
 11 12  1  0
 11 13  1  0
 13 14  2  0
 14  8  1  0
  1 15  1  0
  3 16  1  0
  3 17  1  0
  6 18  1  0
  6 19  1  0
  7 20  1  0
  9 21  1  0
 10 22  1  0
 13 23  1  0
 14 24  1  0
M  END
>  <loss>  (7) 
0.6412736773490906

>  <score>  (7) 
2.6327853202819824

$$$$
GVZIHTVADXTMQR-UHFFFAOYSA-N
     RDKit          3D

 24 24  0  0  0  0  0  0  0  0999 V2000
  126.3836  121.6501   91.1776 N   0  0  0  0  0  0  0  0  0  0  0  0
  125.8711  120.5819   90.6851 C   0  0  0  0  0  0  0  0  0  0  0  0
  126.2450  119.3661   91.1372 N   0  0  0  0  0  0  0  0  0  0  0  0
  124.9912  120.7424   89.6759 N   0  0  0  0  0  0  0  0  0  0  0  0
  123.7237  120.7530   89.9322 C   0  0  0  0  0  0  0  0  0  0  0  0
  123.1553  120.6212   91.1715 N   0  0  0  0  0  0  0  0  0  0  0  0
  122.7197  120.9208   89.0143 N   0  0  0  0  0  0  0  0  0  0  0  0
  122.7147  121.6925   87.8351 C   0  0  0  0  0  0  0  0  0  0  0  0
  123.7328  121.6557   86.8750 C   0  0  0  0  0  0  0  0  0  0  0  0
  123.6512  122.4114   85.6988 C   0  0  0  0  0  0  0  0  0  0  0  0
  122.5334  123.2032   85.4607 C   0  0  0  0  0  0  0  0  0  0  0  0
  122.4195  124.2214   83.8734 Br  0  0  0  0  0  0  0  0  0  0  0  0
  121.4947  123.2401   86.3841 C   0  0  0  0  0  0  0  0  0  0  0  0
  121.5847  122.4825   87.5570 C   0  0  0  0  0  0  0  0  0  0  0  0
  126.0903  122.5722   90.8245 H   0  0  0  0  0  0  0  0  0  0  0  0
  125.8265  118.5156   90.7341 H   0  0  0  0  0  0  0  0  0  0  0  0
  126.9488  119.2889   91.8853 H   0  0  0  0  0  0  0  0  0  0  0  0
  122.1306  120.6426   91.2730 H   0  0  0  0  0  0  0  0  0  0  0  0
  123.7527  120.5007   92.0019 H   0  0  0  0  0  0  0  0  0  0  0  0
  121.8469  120.4117   89.2143 H   0  0  0  0  0  0  0  0  0  0  0  0
  124.6143  121.0207   87.0479 H   0  0  0  0  0  0  0  0  0  0  0  0
  124.4698  122.3785   84.9647 H   0  0  0  0  0  0  0  0  0  0  0  0
  120.6072  123.8614   86.1937 H   0  0  0  0  0  0  0  0  0  0  0  0
  120.7536  122.5052   88.2772 H   0  0  0  0  0  0  0  0  0  0  0  0
  1  2  2  3
  2  3  1  0
  2  4  1  0
  4  5  2  3
  5  6  1  0
  5  7  1  0
  7  8  1  0
  8  9  2  0
  9 10  1  0
 10 11  2  0
 11 12  1  0
 11 13  1  0
 13 14  2  0
 14  8  1  0
  1 15  1  0
  3 16  1  0
  3 17  1  0
  6 18  1  0
  6 19  1  0
  7 20  1  0
  9 21  1  0
 10 22  1  0
 13 23  1  0
 14 24  1  0
M  END
>  <loss>  (8) 
0.6166237592697144

>  <score>  (8) 
2.494260549545288

$$$$
GVZIHTVADXTMQR-UHFFFAOYSA-N
     RDKit          3D

 24 24  0  0  0  0  0  0  0  0999 V2000
  126.3275  119.9332   91.4816 N   0  0  0  0  0  0  0  0  0  0  0  0
  125.8123  121.0399   91.0843 C   0  0  0  0  0  0  0  0  0  0  0  0
  126.0494  122.1845   91.7580 N   0  0  0  0  0  0  0  0  0  0  0  0
  125.0750  120.9778   89.9559 N   0  0  0  0  0  0  0  0  0  0  0  0
  123.7996  120.7773   90.0181 C   0  0  0  0  0  0  0  0  0  0  0  0
  123.0652  120.6292   91.1653 N   0  0  0  0  0  0  0  0  0  0  0  0
  122.9451  120.6921   88.9504 N   0  0  0  0  0  0  0  0  0  0  0  0
  122.8085  121.5486   87.8409 C   0  0  0  0  0  0  0  0  0  0  0  0
  121.6188  122.2879   87.7103 C   0  0  0  0  0  0  0  0  0  0  0  0
  121.3987  123.1305   86.6152 C   0  0  0  0  0  0  0  0  0  0  0  0
  122.3660  123.2332   85.6220 C   0  0  0  0  0  0  0  0  0  0  0  0
  122.0770  124.3674   84.1390 Br  0  0  0  0  0  0  0  0  0  0  0  0
  123.5415  122.4966   85.7142 C   0  0  0  0  0  0  0  0  0  0  0  0
  123.7533  121.6553   86.8137 C   0  0  0  0  0  0  0  0  0  0  0  0
  126.1421  119.0632   90.9624 H   0  0  0  0  0  0  0  0  0  0  0  0
  125.6328  123.0688   91.4335 H   0  0  0  0  0  0  0  0  0  0  0  0
  126.6472  122.1740   92.5967 H   0  0  0  0  0  0  0  0  0  0  0  0
  122.0488  120.4725   91.1095 H   0  0  0  0  0  0  0  0  0  0  0  0
  123.5297  120.6746   92.0836 H   0  0  0  0  0  0  0  0  0  0  0  0
  122.3089  119.8822   88.9608 H   0  0  0  0  0  0  0  0  0  0  0  0
  120.8442  122.2016   88.4865 H   0  0  0  0  0  0  0  0  0  0  0  0
  120.4657  123.7083   86.5405 H   0  0  0  0  0  0  0  0  0  0  0  0
  124.3038  122.5745   84.9250 H   0  0  0  0  0  0  0  0  0  0  0  0
  124.6807  121.0665   86.8711 H   0  0  0  0  0  0  0  0  0  0  0  0
  1  2  2  3
  2  3  1  0
  2  4  1  0
  4  5  2  3
  5  6  1  0
  5  7  1  0
  7  8  1  0
  8  9  2  0
  9 10  1  0
 10 11  2  0
 11 12  1  0
 11 13  1  0
 13 14  2  0
 14  8  1  0
  1 15  1  0
  3 16  1  0
  3 17  1  0
  6 18  1  0
  6 19  1  0
  7 20  1  0
  9 21  1  0
 10 22  1  0
 13 23  1  0
 14 24  1  0
M  END
>  <loss>  (9) 
0.6337110996246338

>  <score>  (9) 
2.5655555725097656

$$$$
GVZIHTVADXTMQR-UHFFFAOYSA-N
     RDKit          3D

 24 24  0  0  0  0  0  0  0  0999 V2000
  126.2985  119.9815   91.5322 N   0  0  0  0  0  0  0  0  0  0  0  0
  125.6978  121.0587   91.1763 C   0  0  0  0  0  0  0  0  0  0  0  0
  125.8272  122.1860   91.9060 N   0  0  0  0  0  0  0  0  0  0  0  0
  124.9857  120.9885   90.0323 N   0  0  0  0  0  0  0  0  0  0  0  0
  123.7117  120.7729   90.0670 C   0  0  0  0  0  0  0  0  0  0  0  0
  122.9548  120.6156   91.1982 N   0  0  0  0  0  0  0  0  0  0  0  0
  122.8814  120.6782   88.9812 N   0  0  0  0  0  0  0  0  0  0  0  0
  122.7620  121.5310   87.8669 C   0  0  0  0  0  0  0  0  0  0  0  0
  121.5651  122.2518   87.7027 C   0  0  0  0  0  0  0  0  0  0  0  0
  121.3620  123.0894   86.6005 C   0  0  0  0  0  0  0  0  0  0  0  0
  122.3542  123.2056   85.6338 C   0  0  0  0  0  0  0  0  0  0  0  0
  122.0884  124.3332   84.1415 Br  0  0  0  0  0  0  0  0  0  0  0  0
  123.5379  122.4872   85.7592 C   0  0  0  0  0  0  0  0  0  0  0  0
  123.7326  121.6507   86.8656 C   0  0  0  0  0  0  0  0  0  0  0  0
  126.1953  119.1245   90.9703 H   0  0  0  0  0  0  0  0  0  0  0  0
  125.3424  123.0467   91.6145 H   0  0  0  0  0  0  0  0  0  0  0  0
  126.4109  122.1860   92.7547 H   0  0  0  0  0  0  0  0  0  0  0  0
  121.9416  120.4469   91.1206 H   0  0  0  0  0  0  0  0  0  0  0  0
  123.3989  120.6659   92.1262 H   0  0  0  0  0  0  0  0  0  0  0  0
  122.2518  119.8631   88.9798 H   0  0  0  0  0  0  0  0  0  0  0  0
  120.7710  122.1547   88.4578 H   0  0  0  0  0  0  0  0  0  0  0  0
  120.4226  123.6528   86.4995 H   0  0  0  0  0  0  0  0  0  0  0  0
  124.3201  122.5756   84.9909 H   0  0  0  0  0  0  0  0  0  0  0  0
  124.6670  121.0763   86.9492 H   0  0  0  0  0  0  0  0  0  0  0  0
  1  2  2  3
  2  3  1  0
  2  4  1  0
  4  5  2  3
  5  6  1  0
  5  7  1  0
  7  8  1  0
  8  9  2  0
  9 10  1  0
 10 11  2  0
 11 12  1  0
 11 13  1  0
 13 14  2  0
 14  8  1  0
  1 15  1  0
  3 16  1  0
  3 17  1  0
  6 18  1  0
  6 19  1  0
  7 20  1  0
  9 21  1  0
 10 22  1  0
 13 23  1  0
 14 24  1  0
M  END
>  <loss>  (10) 
0.6345933675765991

>  <score>  (10) 
2.5558059215545654

$$$$
GVZIHTVADXTMQR-UHFFFAOYSA-N
     RDKit          3D

 24 24  0  0  0  0  0  0  0  0999 V2000
  125.6993  122.0727   91.8178 N   0  0  0  0  0  0  0  0  0  0  0  0
  125.6109  120.9923   91.1178 C   0  0  0  0  0  0  0  0  0  0  0  0
  126.3174  119.8904   91.4497 N   0  0  0  0  0  0  0  0  0  0  0  0
  124.8097  120.9096   90.0286 N   0  0  0  0  0  0  0  0  0  0  0  0
  123.5220  120.8273   90.1015 C   0  0  0  0  0  0  0  0  0  0  0  0
  122.7840  120.7777   91.2527 N   0  0  0  0  0  0  0  0  0  0  0  0
  122.6618  120.7421   89.0379 N   0  0  0  0  0  0  0  0  0  0  0  0
  122.6134  121.5313   87.8745 C   0  0  0  0  0  0  0  0  0  0  0  0
  121.4783  122.3281   87.6459 C   0  0  0  0  0  0  0  0  0  0  0  0
  121.3826  123.1527   86.5198 C   0  0  0  0  0  0  0  0  0  0  0  0
  122.4340  123.2001   85.6107 C   0  0  0  0  0  0  0  0  0  0  0  0
  122.3133  124.3125   84.0882 Br  0  0  0  0  0  0  0  0  0  0  0  0
  123.5769  122.4368   85.8233 C   0  0  0  0  0  0  0  0  0  0  0  0
  123.6638  121.6138   86.9524 C   0  0  0  0  0  0  0  0  0  0  0  0
  125.1539  122.9049   91.5516 H   0  0  0  0  0  0  0  0  0  0  0  0
  126.2359  119.0356   90.8808 H   0  0  0  0  0  0  0  0  0  0  0  0
  126.9378  119.9046   92.2718 H   0  0  0  0  0  0  0  0  0  0  0  0
  121.7572  120.7124   91.2038 H   0  0  0  0  0  0  0  0  0  0  0  0
  123.2552  120.8057   92.1681 H   0  0  0  0  0  0  0  0  0  0  0  0
  121.9530  119.9973   89.0989 H   0  0  0  0  0  0  0  0  0  0  0  0
  120.6482  122.3028   88.3672 H   0  0  0  0  0  0  0  0  0  0  0  0
  120.4807  123.7604   86.3543 H   0  0  0  0  0  0  0  0  0  0  0  0
  124.4101  122.4797   85.1065 H   0  0  0  0  0  0  0  0  0  0  0  0
  124.5751  121.0203   87.1183 H   0  0  0  0  0  0  0  0  0  0  0  0
  1  2  2  3
  2  3  1  0
  2  4  1  0
  4  5  2  3
  5  6  1  0
  5  7  1  0
  7  8  1  0
  8  9  2  0
  9 10  1  0
 10 11  2  0
 11 12  1  0
 11 13  1  0
 13 14  2  0
 14  8  1  0
  1 15  1  0
  3 16  1  0
  3 17  1  0
  6 18  1  0
  6 19  1  0
  7 20  1  0
  9 21  1  0
 10 22  1  0
 13 23  1  0
 14 24  1  0
M  END
>  <loss>  (11) 
0.6445897221565247

>  <score>  (11) 
2.571078062057495

$$$$
GVZIHTVADXTMQR-UHFFFAOYSA-N
     RDKit          3D

 24 24  0  0  0  0  0  0  0  0999 V2000
  125.6133  124.2852   82.7337 N   0  0  0  0  0  0  0  0  0  0  0  0
  125.0731  124.7730   83.7911 C   0  0  0  0  0  0  0  0  0  0  0  0
  125.3715  126.0253   84.1950 N   0  0  0  0  0  0  0  0  0  0  0  0
  124.1831  123.9784   84.4212 N   0  0  0  0  0  0  0  0  0  0  0  0
  124.4895  122.7575   84.7149 C   0  0  0  0  0  0  0  0  0  0  0  0
  125.6898  122.1476   84.4605 N   0  0  0  0  0  0  0  0  0  0  0  0
  123.6774  121.8539   85.3484 N   0  0  0  0  0  0  0  0  0  0  0  0
  123.1207  121.9011   86.6412 C   0  0  0  0  0  0  0  0  0  0  0  0
  123.8403  121.3179   87.7000 C   0  0  0  0  0  0  0  0  0  0  0  0
  123.3322  121.2952   89.0035 C   0  0  0  0  0  0  0  0  0  0  0  0
  122.0824  121.8457   89.2634 C   0  0  0  0  0  0  0  0  0  0  0  0
  121.3877  121.8185   91.0200 Br  0  0  0  0  0  0  0  0  0  0  0  0
  121.3397  122.4085   88.2316 C   0  0  0  0  0  0  0  0  0  0  0  0
  121.8558  122.4265   86.9297 C   0  0  0  0  0  0  0  0  0  0  0  0
  125.3809  123.3285   82.4311 H   0  0  0  0  0  0  0  0  0  0  0  0
  124.9343  126.4103   85.0445 H   0  0  0  0  0  0  0  0  0  0  0  0
  126.0364  126.5962   83.6540 H   0  0  0  0  0  0  0  0  0  0  0  0
  125.8369  121.1658   84.7347 H   0  0  0  0  0  0  0  0  0  0  0  0
  126.4449  122.6711   83.9951 H   0  0  0  0  0  0  0  0  0  0  0  0
  123.4390  121.0165   84.7981 H   0  0  0  0  0  0  0  0  0  0  0  0
  124.8244  120.8696   87.4986 H   0  0  0  0  0  0  0  0  0  0  0  0
  123.9183  120.8444   89.8179 H   0  0  0  0  0  0  0  0  0  0  0  0
  120.3485  122.8389   88.4374 H   0  0  0  0  0  0  0  0  0  0  0  0
  121.2551  122.8621   86.1177 H   0  0  0  0  0  0  0  0  0  0  0  0
  1  2  2  3
  2  3  1  0
  2  4  1  0
  4  5  2  3
  5  6  1  0
  5  7  1  0
  7  8  1  0
  8  9  2  0
  9 10  1  0
 10 11  2  0
 11 12  1  0
 11 13  1  0
 13 14  2  0
 14  8  1  0
  1 15  1  0
  3 16  1  0
  3 17  1  0
  6 18  1  0
  6 19  1  0
  7 20  1  0
  9 21  1  0
 10 22  1  0
 13 23  1  0
 14 24  1  0
M  END
>  <loss>  (12) 
0.6672688722610474

>  <score>  (12) 
2.6679694652557373

$$$$
GVZIHTVADXTMQR-UHFFFAOYSA-N
     RDKit          3D

 24 24  0  0  0  0  0  0  0  0999 V2000
  127.0330  120.9224   90.9853 N   0  0  0  0  0  0  0  0  0  0  0  0
  125.7546  121.0460   91.0625 C   0  0  0  0  0  0  0  0  0  0  0  0
  125.1637  121.3036   92.2425 N   0  0  0  0  0  0  0  0  0  0  0  0
  125.0053  120.9008   89.9477 N   0  0  0  0  0  0  0  0  0  0  0  0
  123.7180  120.8059   90.0187 C   0  0  0  0  0  0  0  0  0  0  0  0
  122.9824  120.7919   91.1743 N   0  0  0  0  0  0  0  0  0  0  0  0
  122.8585  120.6767   88.9599 N   0  0  0  0  0  0  0  0  0  0  0  0
  122.7154  121.4910   87.8187 C   0  0  0  0  0  0  0  0  0  0  0  0
  123.7062  121.6553   86.8438 C   0  0  0  0  0  0  0  0  0  0  0  0
  123.5210  122.5176   85.7557 C   0  0  0  0  0  0  0  0  0  0  0  0
  122.3414  123.2442   85.6404 C   0  0  0  0  0  0  0  0  0  0  0  0
  122.0907  124.4102   84.1752 Br  0  0  0  0  0  0  0  0  0  0  0  0
  121.3492  123.1211   86.6062 C   0  0  0  0  0  0  0  0  0  0  0  0
  121.5420  122.2566   87.6894 C   0  0  0  0  0  0  0  0  0  0  0  0
  127.4774  120.7250   90.0774 H   0  0  0  0  0  0  0  0  0  0  0  0
  124.1397  121.4010   92.2952 H   0  0  0  0  0  0  0  0  0  0  0  0
  125.7351  121.4036   93.0936 H   0  0  0  0  0  0  0  0  0  0  0  0
  121.9564  120.7127   91.1307 H   0  0  0  0  0  0  0  0  0  0  0  0
  123.4554  120.8607   92.0867 H   0  0  0  0  0  0  0  0  0  0  0  0
  122.2245  119.8662   89.0043 H   0  0  0  0  0  0  0  0  0  0  0  0
  124.6491  121.0960   86.9340 H   0  0  0  0  0  0  0  0  0  0  0  0
  124.3077  122.6196   84.9936 H   0  0  0  0  0  0  0  0  0  0  0  0
  120.4178  123.6999   86.5193 H   0  0  0  0  0  0  0  0  0  0  0  0
  120.7586  122.1737   88.4571 H   0  0  0  0  0  0  0  0  0  0  0  0
  1  2  2  3
  2  3  1  0
  2  4  1  0
  4  5  2  3
  5  6  1  0
  5  7  1  0
  7  8  1  0
  8  9  2  0
  9 10  1  0
 10 11  2  0
 11 12  1  0
 11 13  1  0
 13 14  2  0
 14  8  1  0
  1 15  1  0
  3 16  1  0
  3 17  1  0
  6 18  1  0
  6 19  1  0
  7 20  1  0
  9 21  1  0
 10 22  1  0
 13 23  1  0
 14 24  1  0
M  END
>  <loss>  (13) 
0.647942066192627

>  <score>  (13) 
2.5637834072113037

$$$$
GVZIHTVADXTMQR-UHFFFAOYSA-N
     RDKit          3D

 24 24  0  0  0  0  0  0  0  0999 V2000
  125.4117  121.7292   92.1234 N   0  0  0  0  0  0  0  0  0  0  0  0
  125.8118  121.0937   91.0742 C   0  0  0  0  0  0  0  0  0  0  0  0
  127.0416  120.5377   91.0263 N   0  0  0  0  0  0  0  0  0  0  0  0
  125.0244  120.9506   89.9812 N   0  0  0  0  0  0  0  0  0  0  0  0
  123.7425  120.7994   90.0470 C   0  0  0  0  0  0  0  0  0  0  0  0
  122.9999  120.7274   91.1940 N   0  0  0  0  0  0  0  0  0  0  0  0
  122.8962  120.6510   88.9793 N   0  0  0  0  0  0  0  0  0  0  0  0
  122.7438  121.4762   87.8505 C   0  0  0  0  0  0  0  0  0  0  0  0
  121.5566  122.2155   87.7098 C   0  0  0  0  0  0  0  0  0  0  0  0
  121.3572  123.0722   86.6218 C   0  0  0  0  0  0  0  0  0  0  0  0
  122.3551  123.2102   85.6631 C   0  0  0  0  0  0  0  0  0  0  0  0
  122.0943  124.3665   84.1918 Br  0  0  0  0  0  0  0  0  0  0  0  0
  123.5474  122.5055   85.7888 C   0  0  0  0  0  0  0  0  0  0  0  0
  123.7383  121.6498   86.8801 C   0  0  0  0  0  0  0  0  0  0  0  0
  124.4708  122.1477   92.1444 H   0  0  0  0  0  0  0  0  0  0  0  0
  127.3463  120.0335   90.1814 H   0  0  0  0  0  0  0  0  0  0  0  0
  127.6748  120.6178   91.8346 H   0  0  0  0  0  0  0  0  0  0  0  0
  121.9786  120.6055   91.1394 H   0  0  0  0  0  0  0  0  0  0  0  0
  123.4621  120.7952   92.1119 H   0  0  0  0  0  0  0  0  0  0  0  0
  122.2876  119.8204   89.0074 H   0  0  0  0  0  0  0  0  0  0  0  0
  120.7681  122.1184   88.4706 H   0  0  0  0  0  0  0  0  0  0  0  0
  120.4161  123.6335   86.5251 H   0  0  0  0  0  0  0  0  0  0  0  0
  124.3382  122.6202   85.0328 H   0  0  0  0  0  0  0  0  0  0  0  0
  124.6879  121.1031   86.9773 H   0  0  0  0  0  0  0  0  0  0  0  0
  1  2  2  3
  2  3  1  0
  2  4  1  0
  4  5  2  3
  5  6  1  0
  5  7  1  0
  7  8  1  0
  8  9  2  0
  9 10  1  0
 10 11  2  0
 11 12  1  0
 11 13  1  0
 13 14  2  0
 14  8  1  0
  1 15  1  0
  3 16  1  0
  3 17  1  0
  6 18  1  0
  6 19  1  0
  7 20  1  0
  9 21  1  0
 10 22  1  0
 13 23  1  0
 14 24  1  0
M  END
>  <loss>  (14) 
0.6376746892929077

>  <score>  (14) 
2.509647846221924

$$$$
GVZIHTVADXTMQR-UHFFFAOYSA-N
     RDKit          3D

 24 24  0  0  0  0  0  0  0  0999 V2000
  125.9723  122.0960   91.5312 N   0  0  0  0  0  0  0  0  0  0  0  0
  125.6781  120.9397   91.0595 C   0  0  0  0  0  0  0  0  0  0  0  0
  126.1478  119.8170   91.6437 N   0  0  0  0  0  0  0  0  0  0  0  0
  124.9276  120.9162   89.9394 N   0  0  0  0  0  0  0  0  0  0  0  0
  123.6476  120.7580   90.0341 C   0  0  0  0  0  0  0  0  0  0  0  0
  122.9418  120.6138   91.1992 N   0  0  0  0  0  0  0  0  0  0  0  0
  122.7620  120.7287   88.9883 N   0  0  0  0  0  0  0  0  0  0  0  0
  122.6933  121.5694   87.8594 C   0  0  0  0  0  0  0  0  0  0  0  0
  123.6854  121.6339   86.8738 C   0  0  0  0  0  0  0  0  0  0  0  0
  123.5408  122.4552   85.7488 C   0  0  0  0  0  0  0  0  0  0  0  0
  122.3855  123.2119   85.5878 C   0  0  0  0  0  0  0  0  0  0  0  0
  122.1868  124.3186   84.0695 Br  0  0  0  0  0  0  0  0  0  0  0  0
  121.3719  123.1489   86.5372 C   0  0  0  0  0  0  0  0  0  0  0  0
  121.5248  122.3262   87.6586 C   0  0  0  0  0  0  0  0  0  0  0  0
  125.6079  122.9456   91.0768 H   0  0  0  0  0  0  0  0  0  0  0  0
  125.9048  118.8943   91.2558 H   0  0  0  0  0  0  0  0  0  0  0  0
  126.7493  119.8831   92.4772 H   0  0  0  0  0  0  0  0  0  0  0  0
  121.9193  120.4928   91.1702 H   0  0  0  0  0  0  0  0  0  0  0  0
  123.4335  120.6263   92.1041 H   0  0  0  0  0  0  0  0  0  0  0  0
  122.0469  119.9889   89.0339 H   0  0  0  0  0  0  0  0  0  0  0  0
  124.5964  121.0276   86.9853 H   0  0  0  0  0  0  0  0  0  0  0  0
  124.3396  122.5015   84.9939 H   0  0  0  0  0  0  0  0  0  0  0  0
  120.4549  123.7424   86.4076 H   0  0  0  0  0  0  0  0  0  0  0  0
  120.7135  122.2701   88.3994 H   0  0  0  0  0  0  0  0  0  0  0  0
  1  2  2  3
  2  3  1  0
  2  4  1  0
  4  5  2  3
  5  6  1  0
  5  7  1  0
  7  8  1  0
  8  9  2  0
  9 10  1  0
 10 11  2  0
 11 12  1  0
 11 13  1  0
 13 14  2  0
 14  8  1  0
  1 15  1  0
  3 16  1  0
  3 17  1  0
  6 18  1  0
  6 19  1  0
  7 20  1  0
  9 21  1  0
 10 22  1  0
 13 23  1  0
 14 24  1  0
M  END
>  <loss>  (15) 
0.6461989283561707

>  <score>  (15) 
2.548755168914795

$$$$
GVZIHTVADXTMQR-UHFFFAOYSA-N
     RDKit          3D

 24 24  0  0  0  0  0  0  0  0999 V2000
  125.8035  124.6817   83.3270 N   0  0  0  0  0  0  0  0  0  0  0  0
  124.5647  124.8112   83.6640 C   0  0  0  0  0  0  0  0  0  0  0  0
  123.8759  125.9320   83.3591 N   0  0  0  0  0  0  0  0  0  0  0  0
  123.8993  123.8372   84.3301 N   0  0  0  0  0  0  0  0  0  0  0  0
  124.4716  122.7695   84.7804 C   0  0  0  0  0  0  0  0  0  0  0  0
  125.7922  122.4429   84.6334 N   0  0  0  0  0  0  0  0  0  0  0  0
  123.8526  121.7530   85.4601 N   0  0  0  0  0  0  0  0  0  0  0  0
  123.1902  121.7936   86.7003 C   0  0  0  0  0  0  0  0  0  0  0  0
  123.8802  121.3679   87.8486 C   0  0  0  0  0  0  0  0  0  0  0  0
  123.2832  121.4080   89.1132 C   0  0  0  0  0  0  0  0  0  0  0  0
  121.9856  121.8904   89.2463 C   0  0  0  0  0  0  0  0  0  0  0  0
  121.1730  121.9495   90.9510 Br  0  0  0  0  0  0  0  0  0  0  0  0
  121.2877  122.3364   88.1292 C   0  0  0  0  0  0  0  0  0  0  0  0
  121.8924  122.2919   86.8674 C   0  0  0  0  0  0  0  0  0  0  0  0
  126.3151  123.8206   83.5670 H   0  0  0  0  0  0  0  0  0  0  0  0
  122.8875  126.0202   83.6351 H   0  0  0  0  0  0  0  0  0  0  0  0
  124.3389  126.6988   82.8505 H   0  0  0  0  0  0  0  0  0  0  0  0
  126.1528  121.5640   85.0315 H   0  0  0  0  0  0  0  0  0  0  0  0
  126.4257  123.0759   84.1246 H   0  0  0  0  0  0  0  0  0  0  0  0
  123.8756  120.8323   84.9991 H   0  0  0  0  0  0  0  0  0  0  0  0
  124.9106  120.9955   87.7508 H   0  0  0  0  0  0  0  0  0  0  0  0
  123.8372  121.0600   89.9976 H   0  0  0  0  0  0  0  0  0  0  0  0
  120.2635  122.7231   88.2368 H   0  0  0  0  0  0  0  0  0  0  0  0
  121.3371  122.6553   85.9901 H   0  0  0  0  0  0  0  0  0  0  0  0
  1  2  2  3
  2  3  1  0
  2  4  1  0
  4  5  2  3
  5  6  1  0
  5  7  1  0
  7  8  1  0
  8  9  2  0
  9 10  1  0
 10 11  2  0
 11 12  1  0
 11 13  1  0
 13 14  2  0
 14  8  1  0
  1 15  1  0
  3 16  1  0
  3 17  1  0
  6 18  1  0
  6 19  1  0
  7 20  1  0
  9 21  1  0
 10 22  1  0
 13 23  1  0
 14 24  1  0
M  END
>  <loss>  (16) 
0.6683935523033142

>  <score>  (16) 
2.6098625659942627

$$$$
GVZIHTVADXTMQR-UHFFFAOYSA-N
     RDKit          3D

 24 24  0  0  0  0  0  0  0  0999 V2000
  125.7461  122.1439   91.7680 N   0  0  0  0  0  0  0  0  0  0  0  0
  125.6131  121.0288   91.1327 C   0  0  0  0  0  0  0  0  0  0  0  0
  126.2741  119.9198   91.5276 N   0  0  0  0  0  0  0  0  0  0  0  0
  124.8479  120.9355   90.0188 N   0  0  0  0  0  0  0  0  0  0  0  0
  123.5621  120.8089   90.0659 C   0  0  0  0  0  0  0  0  0  0  0  0
  122.8039  120.7392   91.2034 N   0  0  0  0  0  0  0  0  0  0  0  0
  122.7247  120.6944   88.9866 N   0  0  0  0  0  0  0  0  0  0  0  0
  122.6483  121.5043   87.8385 C   0  0  0  0  0  0  0  0  0  0  0  0
  123.6847  121.6201   86.9044 C   0  0  0  0  0  0  0  0  0  0  0  0
  123.5721  122.4664   85.7949 C   0  0  0  0  0  0  0  0  0  0  0  0
  122.4177  123.2208   85.6154 C   0  0  0  0  0  0  0  0  0  0  0  0
  122.2628  124.3650   84.1197 Br  0  0  0  0  0  0  0  0  0  0  0  0
  121.3804  123.1419   86.5382 C   0  0  0  0  0  0  0  0  0  0  0  0
  121.5017  122.2941   87.6445 C   0  0  0  0  0  0  0  0  0  0  0  0
  125.2342  122.9804   91.4530 H   0  0  0  0  0  0  0  0  0  0  0  0
  126.1563  119.0379   91.0087 H   0  0  0  0  0  0  0  0  0  0  0  0
  126.8963  119.9556   92.3476 H   0  0  0  0  0  0  0  0  0  0  0  0
  121.7812  120.6380   91.1352 H   0  0  0  0  0  0  0  0  0  0  0  0
  123.2562  120.7878   92.1275 H   0  0  0  0  0  0  0  0  0  0  0  0
  122.0605  119.9079   89.0207 H   0  0  0  0  0  0  0  0  0  0  0  0
  124.6054  121.0348   87.0449 H   0  0  0  0  0  0  0  0  0  0  0  0
  124.3943  122.5345   85.0673 H   0  0  0  0  0  0  0  0  0  0  0  0
  120.4695  123.7427   86.3992 H   0  0  0  0  0  0  0  0  0  0  0  0
  120.6831  122.2445   88.3776 H   0  0  0  0  0  0  0  0  0  0  0  0
  1  2  2  3
  2  3  1  0
  2  4  1  0
  4  5  2  3
  5  6  1  0
  5  7  1  0
  7  8  1  0
  8  9  2  0
  9 10  1  0
 10 11  2  0
 11 12  1  0
 11 13  1  0
 13 14  2  0
 14  8  1  0
  1 15  1  0
  3 16  1  0
  3 17  1  0
  6 18  1  0
  6 19  1  0
  7 20  1  0
  9 21  1  0
 10 22  1  0
 13 23  1  0
 14 24  1  0
M  END
>  <loss>  (17) 
0.6442464590072632

>  <score>  (17) 
2.473068952560425

$$$$
GVZIHTVADXTMQR-UHFFFAOYSA-N
     RDKit          3D

 24 24  0  0  0  0  0  0  0  0999 V2000
  125.6469  125.0899   83.7950 N   0  0  0  0  0  0  0  0  0  0  0  0
  124.4155  124.7416   83.6297 C   0  0  0  0  0  0  0  0  0  0  0  0
  123.6274  125.3746   82.7348 N   0  0  0  0  0  0  0  0  0  0  0  0
  123.8496  123.7645   84.3781 N   0  0  0  0  0  0  0  0  0  0  0  0
  124.5118  122.7359   84.7964 C   0  0  0  0  0  0  0  0  0  0  0  0
  125.8326  122.4768   84.5479 N   0  0  0  0  0  0  0  0  0  0  0  0
  124.0069  121.7029   85.5428 N   0  0  0  0  0  0  0  0  0  0  0  0
  123.2562  121.7571   86.7317 C   0  0  0  0  0  0  0  0  0  0  0  0
  121.9434  122.2395   86.7952 C   0  0  0  0  0  0  0  0  0  0  0  0
  121.2507  122.3040   88.0100 C   0  0  0  0  0  0  0  0  0  0  0  0
  121.8746  121.8957   89.1840 C   0  0  0  0  0  0  0  0  0  0  0  0
  120.9430  121.9825   90.8256 Br  0  0  0  0  0  0  0  0  0  0  0  0
  123.1852  121.4317   89.1543 C   0  0  0  0  0  0  0  0  0  0  0  0
  123.8702  121.3713   87.9359 C   0  0  0  0  0  0  0  0  0  0  0  0
  126.2340  124.5960   84.4822 H   0  0  0  0  0  0  0  0  0  0  0  0
  122.6465  125.0835   82.6158 H   0  0  0  0  0  0  0  0  0  0  0  0
  124.0068  126.1487   82.1712 H   0  0  0  0  0  0  0  0  0  0  0  0
  126.2708  121.6256   84.9278 H   0  0  0  0  0  0  0  0  0  0  0  0
  126.3884  123.1330   83.9809 H   0  0  0  0  0  0  0  0  0  0  0  0
  124.2039  120.7576   85.1843 H   0  0  0  0  0  0  0  0  0  0  0  0
  121.4467  122.5743   85.8727 H   0  0  0  0  0  0  0  0  0  0  0  0
  120.2161  122.6765   88.0360 H   0  0  0  0  0  0  0  0  0  0  0  0
  123.6805  121.1139   90.0836 H   0  0  0  0  0  0  0  0  0  0  0  0
  124.9107  121.0146   87.9200 H   0  0  0  0  0  0  0  0  0  0  0  0
  1  2  2  3
  2  3  1  0
  2  4  1  0
  4  5  2  3
  5  6  1  0
  5  7  1  0
  7  8  1  0
  8  9  2  0
  9 10  1  0
 10 11  2  0
 11 12  1  0
 11 13  1  0
 13 14  2  0
 14  8  1  0
  1 15  1  0
  3 16  1  0
  3 17  1  0
  6 18  1  0
  6 19  1  0
  7 20  1  0
  9 21  1  0
 10 22  1  0
 13 23  1  0
 14 24  1  0
M  END
>  <loss>  (18) 
0.6652418971061707

>  <score>  (18) 
2.5310251712799072

$$$$
GVZIHTVADXTMQR-UHFFFAOYSA-N
     RDKit          3D

 24 24  0  0  0  0  0  0  0  0999 V2000
  123.5458  124.0402   82.4501 N   0  0  0  0  0  0  0  0  0  0  0  0
  124.0724  124.4910   83.5340 C   0  0  0  0  0  0  0  0  0  0  0  0
  124.7657  125.6430   83.5284 N   0  0  0  0  0  0  0  0  0  0  0  0
  123.9351  123.7893   84.6804 N   0  0  0  0  0  0  0  0  0  0  0  0
  124.5010  122.6362   84.8266 C   0  0  0  0  0  0  0  0  0  0  0  0
  125.2368  121.9829   83.8736 N   0  0  0  0  0  0  0  0  0  0  0  0
  124.4486  121.8475   85.9455 N   0  0  0  0  0  0  0  0  0  0  0  0
  123.4817  121.8102   86.9698 C   0  0  0  0  0  0  0  0  0  0  0  0
  122.1448  122.1886   86.7999 C   0  0  0  0  0  0  0  0  0  0  0  0
  121.2423  122.1745   87.8709 C   0  0  0  0  0  0  0  0  0  0  0  0
  121.6754  121.7967   89.1369 C   0  0  0  0  0  0  0  0  0  0  0  0
  120.4606  121.7798   90.5837 Br  0  0  0  0  0  0  0  0  0  0  0  0
  123.0031  121.4396   89.3421 C   0  0  0  0  0  0  0  0  0  0  0  0
  123.8976  121.4555   88.2663 C   0  0  0  0  0  0  0  0  0  0  0  0
  123.0162  123.1569   82.4634 H   0  0  0  0  0  0  0  0  0  0  0  0
  125.1839  125.9966   84.4007 H   0  0  0  0  0  0  0  0  0  0  0  0
  124.8787  126.1718   82.6517 H   0  0  0  0  0  0  0  0  0  0  0  0
  125.6507  121.0633   84.0833 H   0  0  0  0  0  0  0  0  0  0  0  0
  125.3761  122.4112   82.9473 H   0  0  0  0  0  0  0  0  0  0  0  0
  125.2299  121.1851   86.0537 H   0  0  0  0  0  0  0  0  0  0  0  0
  121.7961  122.5034   85.8053 H   0  0  0  0  0  0  0  0  0  0  0  0
  120.1927  122.4618   87.7107 H   0  0  0  0  0  0  0  0  0  0  0  0
  123.3484  121.1462   90.3444 H   0  0  0  0  0  0  0  0  0  0  0  0
  124.9498  121.1846   88.4380 H   0  0  0  0  0  0  0  0  0  0  0  0
  1  2  2  3
  2  3  1  0
  2  4  1  0
  4  5  2  3
  5  6  1  0
  5  7  1  0
  7  8  1  0
  8  9  2  0
  9 10  1  0
 10 11  2  0
 11 12  1  0
 11 13  1  0
 13 14  2  0
 14  8  1  0
  1 15  1  0
  3 16  1  0
  3 17  1  0
  6 18  1  0
  6 19  1  0
  7 20  1  0
  9 21  1  0
 10 22  1  0
 13 23  1  0
 14 24  1  0
M  END
>  <loss>  (19) 
0.6755821704864502

>  <score>  (19) 
2.5738208293914795

$$$$
GVZIHTVADXTMQR-UHFFFAOYSA-N
     RDKit          3D

 24 24  0  0  0  0  0  0  0  0999 V2000
  124.7802  124.9743   83.2408 N   0  0  0  0  0  0  0  0  0  0  0  0
  123.7340  124.2664   83.5035 C   0  0  0  0  0  0  0  0  0  0  0  0
  122.6711  124.2600   82.6711 N   0  0  0  0  0  0  0  0  0  0  0  0
  123.6373  123.5423   84.6443 N   0  0  0  0  0  0  0  0  0  0  0  0
  124.5093  122.6477   84.9772 C   0  0  0  0  0  0  0  0  0  0  0  0
  125.6158  122.2969   84.2519 N   0  0  0  0  0  0  0  0  0  0  0  0
  124.4720  121.8676   86.1039 N   0  0  0  0  0  0  0  0  0  0  0  0
  123.4959  121.8251   87.1165 C   0  0  0  0  0  0  0  0  0  0  0  0
  122.1376  122.0790   86.8914 C   0  0  0  0  0  0  0  0  0  0  0  0
  121.2106  122.0573   87.9401 C   0  0  0  0  0  0  0  0  0  0  0  0
  121.6393  121.7923   89.2363 C   0  0  0  0  0  0  0  0  0  0  0  0
  120.3909  121.7633   90.6544 Br  0  0  0  0  0  0  0  0  0  0  0  0
  122.9856  121.5571   89.4929 C   0  0  0  0  0  0  0  0  0  0  0  0
  123.9053  121.5815   88.4389 C   0  0  0  0  0  0  0  0  0  0  0  0
  125.5823  124.9675   83.8869 H   0  0  0  0  0  0  0  0  0  0  0  0
  121.8440  123.6890   82.8964 H   0  0  0  0  0  0  0  0  0  0  0  0
  122.6872  124.8261   81.8108 H   0  0  0  0  0  0  0  0  0  0  0  0
  126.2531  121.5685   84.6045 H   0  0  0  0  0  0  0  0  0  0  0  0
  125.8113  122.7613   83.3536 H   0  0  0  0  0  0  0  0  0  0  0  0
  125.2673  121.2245   86.2258 H   0  0  0  0  0  0  0  0  0  0  0  0
  121.7921  122.2999   85.8707 H   0  0  0  0  0  0  0  0  0  0  0  0
  120.1462  122.2492   87.7396 H   0  0  0  0  0  0  0  0  0  0  0  0
  123.3256  121.3529   90.5190 H   0  0  0  0  0  0  0  0  0  0  0  0
  124.9707  121.4065   88.6495 H   0  0  0  0  0  0  0  0  0  0  0  0
  1  2  2  3
  2  3  1  0
  2  4  1  0
  4  5  2  3
  5  6  1  0
  5  7  1  0
  7  8  1  0
  8  9  2  0
  9 10  1  0
 10 11  2  0
 11 12  1  0
 11 13  1  0
 13 14  2  0
 14  8  1  0
  1 15  1  0
  3 16  1  0
  3 17  1  0
  6 18  1  0
  6 19  1  0
  7 20  1  0
  9 21  1  0
 10 22  1  0
 13 23  1  0
 14 24  1  0
M  END
>  <loss>  (20) 
0.6793811321258545

>  <score>  (20) 
2.5696358680725098

$$$$
GVZIHTVADXTMQR-UHFFFAOYSA-N
     RDKit          3D

 24 24  0  0  0  0  0  0  0  0999 V2000
  123.4362  125.0795   82.6727 N   0  0  0  0  0  0  0  0  0  0  0  0
  124.2027  124.7097   83.6337 C   0  0  0  0  0  0  0  0  0  0  0  0
  125.4217  125.2668   83.7882 N   0  0  0  0  0  0  0  0  0  0  0  0
  123.6946  123.7828   84.4725 N   0  0  0  0  0  0  0  0  0  0  0  0
  124.3791  122.7287   84.7744 C   0  0  0  0  0  0  0  0  0  0  0  0
  125.6411  122.4361   84.3284 N   0  0  0  0  0  0  0  0  0  0  0  0
  123.9760  121.7187   85.6079 N   0  0  0  0  0  0  0  0  0  0  0  0
  123.2661  121.7878   86.8223 C   0  0  0  0  0  0  0  0  0  0  0  0
  123.9143  121.3716   87.9994 C   0  0  0  0  0  0  0  0  0  0  0  0
  123.2590  121.3782   89.2356 C   0  0  0  0  0  0  0  0  0  0  0  0
  121.9330  121.7894   89.3082 C   0  0  0  0  0  0  0  0  0  0  0  0
  121.0396  121.8004   90.9728 Br  0  0  0  0  0  0  0  0  0  0  0  0
  121.2611  122.1845   88.1569 C   0  0  0  0  0  0  0  0  0  0  0  0
  121.9247  122.1743   86.9235 C   0  0  0  0  0  0  0  0  0  0  0  0
  122.5067  124.6499   82.5608 H   0  0  0  0  0  0  0  0  0  0  0  0
  126.0315  124.9653   84.5616 H   0  0  0  0  0  0  0  0  0  0  0  0
  125.7425  125.9937   83.1328 H   0  0  0  0  0  0  0  0  0  0  0  0
  126.1043  121.5662   84.6278 H   0  0  0  0  0  0  0  0  0  0  0  0
  126.1266  123.0859   83.6937 H   0  0  0  0  0  0  0  0  0  0  0  0
  124.2296  120.7687   85.3011 H   0  0  0  0  0  0  0  0  0  0  0  0
  124.9597  121.0333   87.9468 H   0  0  0  0  0  0  0  0  0  0  0  0
  123.7899  121.0598   90.1449 H   0  0  0  0  0  0  0  0  0  0  0  0
  120.2103  122.5045   88.2146 H   0  0  0  0  0  0  0  0  0  0  0  0
  121.3808  122.4762   86.0163 H   0  0  0  0  0  0  0  0  0  0  0  0
  1  2  2  3
  2  3  1  0
  2  4  1  0
  4  5  2  3
  5  6  1  0
  5  7  1  0
  7  8  1  0
  8  9  2  0
  9 10  1  0
 10 11  2  0
 11 12  1  0
 11 13  1  0
 13 14  2  0
 14  8  1  0
  1 15  1  0
  3 16  1  0
  3 17  1  0
  6 18  1  0
  6 19  1  0
  7 20  1  0
  9 21  1  0
 10 22  1  0
 13 23  1  0
 14 24  1  0
M  END
>  <loss>  (21) 
0.6607856154441833

>  <score>  (21) 
2.475759744644165

$$$$
GVZIHTVADXTMQR-UHFFFAOYSA-N
     RDKit          3D

 24 24  0  0  0  0  0  0  0  0999 V2000
  125.5003  125.1190   83.7234 N   0  0  0  0  0  0  0  0  0  0  0  0
  124.3039  124.6563   83.6939 C   0  0  0  0  0  0  0  0  0  0  0  0
  123.4440  125.0300   82.7227 N   0  0  0  0  0  0  0  0  0  0  0  0
  123.9499  123.8298   84.6989 N   0  0  0  0  0  0  0  0  0  0  0  0
  124.4767  122.6509   84.7690 C   0  0  0  0  0  0  0  0  0  0  0  0
  125.4004  122.1327   83.9003 N   0  0  0  0  0  0  0  0  0  0  0  0
  124.2242  121.7142   85.7374 N   0  0  0  0  0  0  0  0  0  0  0  0
  123.3930  121.8113   86.8711 C   0  0  0  0  0  0  0  0  0  0  0  0
  122.0527  122.2127   86.8231 C   0  0  0  0  0  0  0  0  0  0  0  0
  121.2613  122.2457   87.9780 C   0  0  0  0  0  0  0  0  0  0  0  0
  121.8015  121.8571   89.1989 C   0  0  0  0  0  0  0  0  0  0  0  0
  120.7353  121.8981   90.7580 Br  0  0  0  0  0  0  0  0  0  0  0  0
  123.1223  121.4294   89.2732 C   0  0  0  0  0  0  0  0  0  0  0  0
  123.9060  121.4000   88.1145 C   0  0  0  0  0  0  0  0  0  0  0  0
  126.1473  124.8265   84.4695 H   0  0  0  0  0  0  0  0  0  0  0  0
  122.4860  124.6517   82.7095 H   0  0  0  0  0  0  0  0  0  0  0  0
  123.7458  125.6933   81.9948 H   0  0  0  0  0  0  0  0  0  0  0  0
  125.7618  121.1786   84.0416 H   0  0  0  0  0  0  0  0  0  0  0  0
  125.7337  122.6972   83.1058 H   0  0  0  0  0  0  0  0  0  0  0  0
  124.7100  120.8136   85.6200 H   0  0  0  0  0  0  0  0  0  0  0  0
  121.6124  122.5078   85.8592 H   0  0  0  0  0  0  0  0  0  0  0  0
  120.2145  122.5785   87.9195 H   0  0  0  0  0  0  0  0  0  0  0  0
  123.5487  121.1158   90.2375 H   0  0  0  0  0  0  0  0  0  0  0  0
  124.9462  121.0476   88.1774 H   0  0  0  0  0  0  0  0  0  0  0  0
  1  2  2  3
  2  3  1  0
  2  4  1  0
  4  5  2  3
  5  6  1  0
  5  7  1  0
  7  8  1  0
  8  9  2  0
  9 10  1  0
 10 11  2  0
 11 12  1  0
 11 13  1  0
 13 14  2  0
 14  8  1  0
  1 15  1  0
  3 16  1  0
  3 17  1  0
  6 18  1  0
  6 19  1  0
  7 20  1  0
  9 21  1  0
 10 22  1  0
 13 23  1  0
 14 24  1  0
M  END
>  <loss>  (22) 
0.6692198514938354

>  <score>  (22) 
2.513207197189331

$$$$
GVZIHTVADXTMQR-UHFFFAOYSA-N
     RDKit          3D

 24 24  0  0  0  0  0  0  0  0999 V2000
  125.3484  125.2114   83.7448 N   0  0  0  0  0  0  0  0  0  0  0  0
  124.2233  124.6037   83.6398 C   0  0  0  0  0  0  0  0  0  0  0  0
  123.4160  124.8259   82.5808 N   0  0  0  0  0  0  0  0  0  0  0  0
  123.8812  123.7842   84.6545 N   0  0  0  0  0  0  0  0  0  0  0  0
  124.4957  122.6552   84.7957 C   0  0  0  0  0  0  0  0  0  0  0  0
  125.5046  122.1862   83.9965 N   0  0  0  0  0  0  0  0  0  0  0  0
  124.2655  121.7330   85.7834 N   0  0  0  0  0  0  0  0  0  0  0  0
  123.4074  121.8212   86.8977 C   0  0  0  0  0  0  0  0  0  0  0  0
  122.0606  122.1944   86.8170 C   0  0  0  0  0  0  0  0  0  0  0  0
  121.2432  122.2195   87.9539 C   0  0  0  0  0  0  0  0  0  0  0  0
  121.7640  121.8511   89.1893 C   0  0  0  0  0  0  0  0  0  0  0  0
  120.6628  121.8814   90.7241 Br  0  0  0  0  0  0  0  0  0  0  0  0
  123.0913  121.4513   89.2961 C   0  0  0  0  0  0  0  0  0  0  0  0
  123.9011  121.4297   88.1553 C   0  0  0  0  0  0  0  0  0  0  0  0
  125.9559  125.0337   84.5573 H   0  0  0  0  0  0  0  0  0  0  0  0
  122.5151  124.3321   82.5075 H   0  0  0  0  0  0  0  0  0  0  0  0
  123.7010  125.4892   81.8462 H   0  0  0  0  0  0  0  0  0  0  0  0
  125.9325  121.2699   84.1918 H   0  0  0  0  0  0  0  0  0  0  0  0
  125.8352  122.7499   83.2004 H   0  0  0  0  0  0  0  0  0  0  0  0
  124.7935  120.8526   85.6993 H   0  0  0  0  0  0  0  0  0  0  0  0
  121.6359  122.4733   85.8414 H   0  0  0  0  0  0  0  0  0  0  0  0
  120.1914  122.5302   87.8697 H   0  0  0  0  0  0  0  0  0  0  0  0
  123.5025  121.1536   90.2719 H   0  0  0  0  0  0  0  0  0  0  0  0
  124.9465  121.0993   88.2438 H   0  0  0  0  0  0  0  0  0  0  0  0
  1  2  2  3
  2  3  1  0
  2  4  1  0
  4  5  2  3
  5  6  1  0
  5  7  1  0
  7  8  1  0
  8  9  2  0
  9 10  1  0
 10 11  2  0
 11 12  1  0
 11 13  1  0
 13 14  2  0
 14  8  1  0
  1 15  1  0
  3 16  1  0
  3 17  1  0
  6 18  1  0
  6 19  1  0
  7 20  1  0
  9 21  1  0
 10 22  1  0
 13 23  1  0
 14 24  1  0
M  END
>  <loss>  (23) 
0.664778470993042

>  <score>  (23) 
2.439138412475586

$$$$
GVZIHTVADXTMQR-UHFFFAOYSA-N
     RDKit          3D

 24 24  0  0  0  0  0  0  0  0999 V2000
  123.3403  123.3750   82.2557 N   0  0  0  0  0  0  0  0  0  0  0  0
  123.3481  124.0630   83.3430 C   0  0  0  0  0  0  0  0  0  0  0  0
  123.3680  125.4067   83.3004 N   0  0  0  0  0  0  0  0  0  0  0  0
  123.3501  123.4233   84.5331 N   0  0  0  0  0  0  0  0  0  0  0  0
  124.3437  122.6747   84.8846 C   0  0  0  0  0  0  0  0  0  0  0  0
  125.4476  122.4044   84.1199 N   0  0  0  0  0  0  0  0  0  0  0  0
  124.4641  121.9969   86.0690 N   0  0  0  0  0  0  0  0  0  0  0  0
  123.5336  121.8549   87.1176 C   0  0  0  0  0  0  0  0  0  0  0  0
  122.2261  122.3529   87.0780 C   0  0  0  0  0  0  0  0  0  0  0  0
  121.3632  122.2210   88.1735 C   0  0  0  0  0  0  0  0  0  0  0  0
  121.8087  121.6015   89.3356 C   0  0  0  0  0  0  0  0  0  0  0  0
  120.6477  121.4252   90.8155 Br  0  0  0  0  0  0  0  0  0  0  0  0
  123.1101  121.1191   89.4139 C   0  0  0  0  0  0  0  0  0  0  0  0
  123.9649  121.2541   88.3145 C   0  0  0  0  0  0  0  0  0  0  0  0
  123.3251  122.3460   82.2975 H   0  0  0  0  0  0  0  0  0  0  0  0
  123.3742  125.9496   84.1757 H   0  0  0  0  0  0  0  0  0  0  0  0
  123.3772  125.8931   82.3926 H   0  0  0  0  0  0  0  0  0  0  0  0
  126.1913  121.7936   84.4868 H   0  0  0  0  0  0  0  0  0  0  0  0
  125.5339  122.8119   83.1779 H   0  0  0  0  0  0  0  0  0  0  0  0
  125.3663  121.5217   86.2141 H   0  0  0  0  0  0  0  0  0  0  0  0
  121.8690  122.8579   86.1684 H   0  0  0  0  0  0  0  0  0  0  0  0
  120.3349  122.6070   88.1144 H   0  0  0  0  0  0  0  0  0  0  0  0
  123.4657  120.6340   90.3349 H   0  0  0  0  0  0  0  0  0  0  0  0
  124.9976  120.8821   88.3876 H   0  0  0  0  0  0  0  0  0  0  0  0
  1  2  2  3
  2  3  1  0
  2  4  1  0
  4  5  2  3
  5  6  1  0
  5  7  1  0
  7  8  1  0
  8  9  2  0
  9 10  1  0
 10 11  2  0
 11 12  1  0
 11 13  1  0
 13 14  2  0
 14  8  1  0
  1 15  1  0
  3 16  1  0
  3 17  1  0
  6 18  1  0
  6 19  1  0
  7 20  1  0
  9 21  1  0
 10 22  1  0
 13 23  1  0
 14 24  1  0
M  END
>  <loss>  (24) 
0.681658148765564

>  <score>  (24) 
2.4878315925598145

$$$$
GVZIHTVADXTMQR-UHFFFAOYSA-N
     RDKit          3D

 24 24  0  0  0  0  0  0  0  0999 V2000
  123.5377  124.8143   82.5239 N   0  0  0  0  0  0  0  0  0  0  0  0
  124.1653  124.6813   83.6392 C   0  0  0  0  0  0  0  0  0  0  0  0
  125.2295  125.4535   83.9199 N   0  0  0  0  0  0  0  0  0  0  0  0
  123.7546  123.7469   84.5245 N   0  0  0  0  0  0  0  0  0  0  0  0
  124.4724  122.6997   84.7679 C   0  0  0  0  0  0  0  0  0  0  0  0
  125.6592  122.3878   84.1592 N   0  0  0  0  0  0  0  0  0  0  0  0
  124.1685  121.7014   85.6554 N   0  0  0  0  0  0  0  0  0  0  0  0
  123.3383  121.7375   86.7935 C   0  0  0  0  0  0  0  0  0  0  0  0
  122.0152  122.1940   86.7842 C   0  0  0  0  0  0  0  0  0  0  0  0
  121.2561  122.2500   87.9600 C   0  0  0  0  0  0  0  0  0  0  0  0
  121.8229  121.8647   89.1696 C   0  0  0  0  0  0  0  0  0  0  0  0
  120.8019  121.9423   90.7573 Br  0  0  0  0  0  0  0  0  0  0  0  0
  123.1427  121.4305   89.2145 C   0  0  0  0  0  0  0  0  0  0  0  0
  123.8934  121.3767   88.0350 C   0  0  0  0  0  0  0  0  0  0  0  0
  122.7233  124.2186   82.3170 H   0  0  0  0  0  0  0  0  0  0  0  0
  125.7262  125.3402   84.8152 H   0  0  0  0  0  0  0  0  0  0  0  0
  125.5482  126.1583   83.2398 H   0  0  0  0  0  0  0  0  0  0  0  0
  126.1615  121.5274   84.4204 H   0  0  0  0  0  0  0  0  0  0  0  0
  126.0493  123.0137   83.4402 H   0  0  0  0  0  0  0  0  0  0  0  0
  124.6114  120.7916   85.4627 H   0  0  0  0  0  0  0  0  0  0  0  0
  121.5624  122.5152   85.8346 H   0  0  0  0  0  0  0  0  0  0  0  0
  120.2132  122.5983   87.9264 H   0  0  0  0  0  0  0  0  0  0  0  0
  123.5942  121.1310   90.1718 H   0  0  0  0  0  0  0  0  0  0  0  0
  124.9412  121.0448   88.0793 H   0  0  0  0  0  0  0  0  0  0  0  0
  1  2  2  3
  2  3  1  0
  2  4  1  0
  4  5  2  3
  5  6  1  0
  5  7  1  0
  7  8  1  0
  8  9  2  0
  9 10  1  0
 10 11  2  0
 11 12  1  0
 11 13  1  0
 13 14  2  0
 14  8  1  0
  1 15  1  0
  3 16  1  0
  3 17  1  0
  6 18  1  0
  6 19  1  0
  7 20  1  0
  9 21  1  0
 10 22  1  0
 13 23  1  0
 14 24  1  0
M  END
>  <loss>  (25) 
0.6654363870620728

>  <score>  (25) 
2.3735105991363525

$$$$
