HSZVUJORSGYUKY-UHFFFAOYSA-N
     RDKit          3D

 31 31  0  0  0  0  0  0  0  0999 V2000
  119.4159  123.6987   89.4263 C   0  0  0  0  0  0  0  0  0  0  0  0
  119.9864  123.3661   88.1600 O   0  0  0  0  0  0  0  0  0  0  0  0
  120.5691  122.1446   88.1176 C   0  0  0  0  0  0  0  0  0  0  0  0
  120.1341  121.1253   88.6304 O   0  0  0  0  0  0  0  0  0  0  0  0
  121.8441  122.1897   87.3477 C   0  0  0  0  0  0  0  0  0  0  0  0
  123.0124  121.7800   87.9963 C   0  0  0  0  0  0  0  0  0  0  0  0
  124.2338  121.8019   87.3230 C   0  0  0  0  0  0  0  0  0  0  0  0
  124.3056  122.2350   85.9874 C   0  0  0  0  0  0  0  0  0  0  0  0
  125.6241  122.2521   85.2801 C   0  0  0  0  0  0  0  0  0  0  0  0
  126.0621  123.2456   84.7158 O   0  0  0  0  0  0  0  0  0  0  0  0
  126.2437  121.0493   85.3513 O   0  0  0  0  0  0  0  0  0  0  0  0
  127.3954  120.9316   84.5129 C   0  0  0  0  0  0  0  0  0  0  0  0
  123.1268  122.6537   85.3170 C   0  0  0  0  0  0  0  0  0  0  0  0
  123.2161  123.0885   83.9677 N   0  0  0  0  0  0  0  0  0  0  0  0
  122.3171  122.9079   82.9141 C   0  0  0  0  0  0  0  0  0  0  0  0
  121.3433  122.1567   82.9724 O   0  0  0  0  0  0  0  0  0  0  0  0
  122.6576  123.7464   81.6502 C   0  0  0  0  0  0  0  0  0  0  0  0
  121.1785  124.3057   80.8324 Cl  0  0  0  0  0  0  0  0  0  0  0  0
  123.6296  125.1594   82.1510 Cl  0  0  0  0  0  0  0  0  0  0  0  0
  123.6057  122.7266   80.5306 Cl  0  0  0  0  0  0  0  0  0  0  0  0
  121.9082  122.6238   86.0131 C   0  0  0  0  0  0  0  0  0  0  0  0
  120.0638  123.3210   90.2310 H   0  0  0  0  0  0  0  0  0  0  0  0
  119.3244  124.7915   89.5116 H   0  0  0  0  0  0  0  0  0  0  0  0
  118.4199  123.2396   89.5116 H   0  0  0  0  0  0  0  0  0  0  0  0
  122.9685  121.4392   89.0412 H   0  0  0  0  0  0  0  0  0  0  0  0
  125.1483  121.4776   87.8412 H   0  0  0  0  0  0  0  0  0  0  0  0
  128.2959  120.8396   85.1378 H   0  0  0  0  0  0  0  0  0  0  0  0
  127.2969  120.0389   83.8779 H   0  0  0  0  0  0  0  0  0  0  0  0
  127.4795  121.8259   83.8779 H   0  0  0  0  0  0  0  0  0  0  0  0
  124.0696  123.6144   83.7315 H   0  0  0  0  0  0  0  0  0  0  0  0
  120.9874  122.9458   85.5048 H   0  0  0  0  0  0  0  0  0  0  0  0
  1  2  1  0
  2  3  1  0
  3  4  2  0
  3  5  1  0
  5  6  2  0
  6  7  1  0
  7  8  2  0
  8  9  1  0
  9 10  2  0
  9 11  1  0
 11 12  1  0
  8 13  1  0
 13 14  1  0
 14 15  1  0
 15 16  2  0
 15 17  1  0
 17 18  1  0
 17 19  1  0
 17 20  1  0
 13 21  2  0
 21  5  1  0
  1 22  1  0
  1 23  1  0
  1 24  1  0
  6 25  1  0
  7 26  1  0
 12 27  1  0
 12 28  1  0
 12 29  1  0
 14 30  1  0
 21 31  1  0
M  END
>  <loss>  (1) 
0.6709653735160828

>  <score>  (1) 
2.209500312805176

$$$$
HSZVUJORSGYUKY-UHFFFAOYSA-N
     RDKit          3D

 31 31  0  0  0  0  0  0  0  0999 V2000
  119.4259  123.5502   89.5484 C   0  0  0  0  0  0  0  0  0  0  0  0
  119.9227  123.1593   88.2677 O   0  0  0  0  0  0  0  0  0  0  0  0
  120.6553  122.0203   88.2815 C   0  0  0  0  0  0  0  0  0  0  0  0
  120.3939  121.0088   88.9134 O   0  0  0  0  0  0  0  0  0  0  0  0
  121.8554  122.1499   87.4078 C   0  0  0  0  0  0  0  0  0  0  0  0
  123.0883  121.7569   87.9305 C   0  0  0  0  0  0  0  0  0  0  0  0
  124.2401  121.8592   87.1517 C   0  0  0  0  0  0  0  0  0  0  0  0
  124.1849  122.3559   85.8351 C   0  0  0  0  0  0  0  0  0  0  0  0
  125.5048  122.4056   85.1250 C   0  0  0  0  0  0  0  0  0  0  0  0
  125.8357  123.3248   84.3919 O   0  0  0  0  0  0  0  0  0  0  0  0
  126.2725  121.3175   85.3957 O   0  0  0  0  0  0  0  0  0  0  0  0
  126.6578  120.5749   84.2332 C   0  0  0  0  0  0  0  0  0  0  0  0
  122.9373  122.7584   85.2931 C   0  0  0  0  0  0  0  0  0  0  0  0
  122.8715  123.2598   83.9686 N   0  0  0  0  0  0  0  0  0  0  0  0
  122.0512  122.8736   82.9042 C   0  0  0  0  0  0  0  0  0  0  0  0
  121.2836  121.9129   82.9467 O   0  0  0  0  0  0  0  0  0  0  0  0
  122.1983  123.7778   81.6483 C   0  0  0  0  0  0  0  0  0  0  0  0
  122.0400  125.4842   82.1608 Cl  0  0  0  0  0  0  0  0  0  0  0  0
  120.9637  123.4018   80.4277 Cl  0  0  0  0  0  0  0  0  0  0  0  0
  123.8280  123.5212   80.9570 Cl  0  0  0  0  0  0  0  0  0  0  0  0
  121.7881  122.6471   86.0953 C   0  0  0  0  0  0  0  0  0  0  0  0
  120.0291  123.0755   90.3362 H   0  0  0  0  0  0  0  0  0  0  0  0
  119.4884  124.6440   89.6476 H   0  0  0  0  0  0  0  0  0  0  0  0
  118.3775  123.2324   89.6476 H   0  0  0  0  0  0  0  0  0  0  0  0
  123.1512  121.3664   88.9569 H   0  0  0  0  0  0  0  0  0  0  0  0
  125.2074  121.5469   87.5723 H   0  0  0  0  0  0  0  0  0  0  0  0
  127.1442  119.6377   84.5414 H   0  0  0  0  0  0  0  0  0  0  0  0
  125.7654  120.3447   83.6327 H   0  0  0  0  0  0  0  0  0  0  0  0
  127.3598  121.1721   83.6327 H   0  0  0  0  0  0  0  0  0  0  0  0
  123.5280  124.0251   83.7584 H   0  0  0  0  0  0  0  0  0  0  0  0
  120.8148  122.9560   85.6864 H   0  0  0  0  0  0  0  0  0  0  0  0
  1  2  1  0
  2  3  1  0
  3  4  2  0
  3  5  1  0
  5  6  2  0
  6  7  1  0
  7  8  2  0
  8  9  1  0
  9 10  2  0
  9 11  1  0
 11 12  1  0
  8 13  1  0
 13 14  1  0
 14 15  1  0
 15 16  2  0
 15 17  1  0
 17 18  1  0
 17 19  1  0
 17 20  1  0
 13 21  2  0
 21  5  1  0
  1 22  1  0
  1 23  1  0
  1 24  1  0
  6 25  1  0
  7 26  1  0
 12 27  1  0
 12 28  1  0
 12 29  1  0
 14 30  1  0
 21 31  1  0
M  END
>  <loss>  (2) 
0.6708295941352844

>  <score>  (2) 
2.084947347640991

$$$$
HSZVUJORSGYUKY-UHFFFAOYSA-N
     RDKit          3D

 31 31  0  0  0  0  0  0  0  0999 V2000
  119.4367  120.2968   88.5429 C   0  0  0  0  0  0  0  0  0  0  0  0
  120.4623  121.2456   88.8421 O   0  0  0  0  0  0  0  0  0  0  0  0
  120.5434  122.2656   87.9508 C   0  0  0  0  0  0  0  0  0  0  0  0
  119.6670  123.0829   87.7233 O   0  0  0  0  0  0  0  0  0  0  0  0
  121.8694  122.2608   87.2693 C   0  0  0  0  0  0  0  0  0  0  0  0
  123.0362  121.8481   87.9187 C   0  0  0  0  0  0  0  0  0  0  0  0
  124.2557  121.8607   87.2401 C   0  0  0  0  0  0  0  0  0  0  0  0
  124.3274  122.2861   85.9016 C   0  0  0  0  0  0  0  0  0  0  0  0
  125.6450  122.2919   85.1921 C   0  0  0  0  0  0  0  0  0  0  0  0
  125.9765  123.1750   84.4128 O   0  0  0  0  0  0  0  0  0  0  0  0
  126.3950  121.2137   85.5254 O   0  0  0  0  0  0  0  0  0  0  0  0
  126.7872  120.4058   84.4133 C   0  0  0  0  0  0  0  0  0  0  0  0
  123.1501  122.7075   85.2312 C   0  0  0  0  0  0  0  0  0  0  0  0
  123.2398  123.1341   83.8798 N   0  0  0  0  0  0  0  0  0  0  0  0
  122.3841  122.8737   82.8070 C   0  0  0  0  0  0  0  0  0  0  0  0
  121.5259  121.9917   82.8204 O   0  0  0  0  0  0  0  0  0  0  0  0
  122.6136  123.8045   81.5839 C   0  0  0  0  0  0  0  0  0  0  0  0
  122.3579  122.8549   80.0916 Cl  0  0  0  0  0  0  0  0  0  0  0  0
  121.4917  125.1863   81.6050 Cl  0  0  0  0  0  0  0  0  0  0  0  0
  124.2962  124.4051   81.6348 Cl  0  0  0  0  0  0  0  0  0  0  0  0
  121.9343  122.6872   85.9315 C   0  0  0  0  0  0  0  0  0  0  0  0
  119.0141  119.9059   89.4803 H   0  0  0  0  0  0  0  0  0  0  0  0
  118.6432  120.7863   87.9591 H   0  0  0  0  0  0  0  0  0  0  0  0
  119.8631  119.4678   87.9591 H   0  0  0  0  0  0  0  0  0  0  0  0
  122.9933  121.5131   88.9655 H   0  0  0  0  0  0  0  0  0  0  0  0
  125.1700  121.5345   87.7574 H   0  0  0  0  0  0  0  0  0  0  0  0
  127.2403  119.4728   84.7795 H   0  0  0  0  0  0  0  0  0  0  0  0
  125.9037  120.1692   83.8022 H   0  0  0  0  0  0  0  0  0  0  0  0
  127.5196  120.9538   83.8022 H   0  0  0  0  0  0  0  0  0  0  0  0
  124.0560  123.7220   83.6580 H   0  0  0  0  0  0  0  0  0  0  0  0
  121.0140  123.0113   85.4236 H   0  0  0  0  0  0  0  0  0  0  0  0
  1  2  1  0
  2  3  1  0
  3  4  2  0
  3  5  1  0
  5  6  2  0
  6  7  1  0
  7  8  2  0
  8  9  1  0
  9 10  2  0
  9 11  1  0
 11 12  1  0
  8 13  1  0
 13 14  1  0
 14 15  1  0
 15 16  2  0
 15 17  1  0
 17 18  1  0
 17 19  1  0
 17 20  1  0
 13 21  2  0
 21  5  1  0
  1 22  1  0
  1 23  1  0
  1 24  1  0
  6 25  1  0
  7 26  1  0
 12 27  1  0
 12 28  1  0
 12 29  1  0
 14 30  1  0
 21 31  1  0
M  END
>  <loss>  (3) 
0.6746430993080139

>  <score>  (3) 
2.0939581394195557

$$$$
HSZVUJORSGYUKY-UHFFFAOYSA-N
     RDKit          3D

 31 31  0  0  0  0  0  0  0  0999 V2000
  119.5226  120.2281   88.6310 C   0  0  0  0  0  0  0  0  0  0  0  0
  120.5159  121.2099   88.9325 O   0  0  0  0  0  0  0  0  0  0  0  0
  120.5552  122.2401   88.0503 C   0  0  0  0  0  0  0  0  0  0  0  0
  119.6637  123.0515   87.8642 O   0  0  0  0  0  0  0  0  0  0  0  0
  121.8554  122.2551   87.3208 C   0  0  0  0  0  0  0  0  0  0  0  0
  123.0433  121.8162   87.9120 C   0  0  0  0  0  0  0  0  0  0  0  0
  124.2372  121.8488   87.1899 C   0  0  0  0  0  0  0  0  0  0  0  0
  124.2617  122.3208   85.8654 C   0  0  0  0  0  0  0  0  0  0  0  0
  125.5524  122.3474   85.1086 C   0  0  0  0  0  0  0  0  0  0  0  0
  125.8148  123.2004   84.2716 O   0  0  0  0  0  0  0  0  0  0  0  0
  126.3636  121.3243   85.4711 O   0  0  0  0  0  0  0  0  0  0  0  0
  126.9614  120.6324   84.3725 C   0  0  0  0  0  0  0  0  0  0  0  0
  123.0625  122.7692   85.2539 C   0  0  0  0  0  0  0  0  0  0  0  0
  123.1045  123.2427   83.9159 N   0  0  0  0  0  0  0  0  0  0  0  0
  122.3867  122.8120   82.7978 C   0  0  0  0  0  0  0  0  0  0  0  0
  121.7153  121.7808   82.7766 O   0  0  0  0  0  0  0  0  0  0  0  0
  122.5120  123.7586   81.5716 C   0  0  0  0  0  0  0  0  0  0  0  0
  121.0129  124.7233   81.4433 Cl  0  0  0  0  0  0  0  0  0  0  0  0
  123.9069  124.8450   81.8328 Cl  0  0  0  0  0  0  0  0  0  0  0  0
  122.7531  122.8378   80.0675 Cl  0  0  0  0  0  0  0  0  0  0  0  0
  121.8731  122.7281   85.9973 C   0  0  0  0  0  0  0  0  0  0  0  0
  119.1120  119.8223   89.5673 H   0  0  0  0  0  0  0  0  0  0  0  0
  118.7142  120.6919   88.0467 H   0  0  0  0  0  0  0  0  0  0  0  0
  119.9768  119.4143   88.0467 H   0  0  0  0  0  0  0  0  0  0  0  0
  123.0373  121.4447   88.9473 H   0  0  0  0  0  0  0  0  0  0  0  0
  125.1683  121.5017   87.6615 H   0  0  0  0  0  0  0  0  0  0  0  0
  127.6359  119.8517   84.7541 H   0  0  0  0  0  0  0  0  0  0  0  0
  126.1746  120.1693   83.7589 H   0  0  0  0  0  0  0  0  0  0  0  0
  127.5338  121.3436   83.7589 H   0  0  0  0  0  0  0  0  0  0  0  0
  123.7609  124.0178   83.7447 H   0  0  0  0  0  0  0  0  0  0  0  0
  120.9362  123.0728   85.5352 H   0  0  0  0  0  0  0  0  0  0  0  0
  1  2  1  0
  2  3  1  0
  3  4  2  0
  3  5  1  0
  5  6  2  0
  6  7  1  0
  7  8  2  0
  8  9  1  0
  9 10  2  0
  9 11  1  0
 11 12  1  0
  8 13  1  0
 13 14  1  0
 14 15  1  0
 15 16  2  0
 15 17  1  0
 17 18  1  0
 17 19  1  0
 17 20  1  0
 13 21  2  0
 21  5  1  0
  1 22  1  0
  1 23  1  0
  1 24  1  0
  6 25  1  0
  7 26  1  0
 12 27  1  0
 12 28  1  0
 12 29  1  0
 14 30  1  0
 21 31  1  0
M  END
>  <loss>  (4) 
0.6734557747840881

>  <score>  (4) 
2.0558106899261475

$$$$
HSZVUJORSGYUKY-UHFFFAOYSA-N
     RDKit          3D

 31 31  0  0  0  0  0  0  0  0999 V2000
  119.2148  120.5087   88.7288 C   0  0  0  0  0  0  0  0  0  0  0  0
  120.4571  121.2081   88.8241 O   0  0  0  0  0  0  0  0  0  0  0  0
  120.5548  122.2703   87.9853 C   0  0  0  0  0  0  0  0  0  0  0  0
  119.6960  123.1181   87.8082 O   0  0  0  0  0  0  0  0  0  0  0  0
  121.8746  122.2698   87.2919 C   0  0  0  0  0  0  0  0  0  0  0  0
  123.0495  121.8668   87.9325 C   0  0  0  0  0  0  0  0  0  0  0  0
  124.2628  121.8831   87.2428 C   0  0  0  0  0  0  0  0  0  0  0  0
  124.3200  122.3027   85.9018 C   0  0  0  0  0  0  0  0  0  0  0  0
  125.6309  122.3126   85.1804 C   0  0  0  0  0  0  0  0  0  0  0  0
  126.0051  123.2541   84.4942 O   0  0  0  0  0  0  0  0  0  0  0  0
  126.3229  121.1663   85.3888 O   0  0  0  0  0  0  0  0  0  0  0  0
  126.9064  120.6107   84.2081 C   0  0  0  0  0  0  0  0  0  0  0  0
  123.1342  122.7142   85.2402 C   0  0  0  0  0  0  0  0  0  0  0  0
  123.2093  123.1350   83.8861 N   0  0  0  0  0  0  0  0  0  0  0  0
  122.3560  122.8489   82.8180 C   0  0  0  0  0  0  0  0  0  0  0  0
  121.5715  121.9006   82.8095 O   0  0  0  0  0  0  0  0  0  0  0  0
  122.4858  123.8426   81.6302 C   0  0  0  0  0  0  0  0  0  0  0  0
  122.9437  122.9231   80.1677 Cl  0  0  0  0  0  0  0  0  0  0  0  0
  123.7638  125.0297   82.0199 Cl  0  0  0  0  0  0  0  0  0  0  0  0
  120.9536  124.6989   81.3348 Cl  0  0  0  0  0  0  0  0  0  0  0  0
  121.9250  122.6903   85.9516 C   0  0  0  0  0  0  0  0  0  0  0  0
  118.8358  120.2953   89.7392 H   0  0  0  0  0  0  0  0  0  0  0  0
  118.4855  121.1287   88.1870 H   0  0  0  0  0  0  0  0  0  0  0  0
  119.3668  119.5635   88.1870 H   0  0  0  0  0  0  0  0  0  0  0  0
  123.0180  121.5364   88.9812 H   0  0  0  0  0  0  0  0  0  0  0  0
  125.1836  121.5645   87.7533 H   0  0  0  0  0  0  0  0  0  0  0  0
  127.6764  119.8774   84.4898 H   0  0  0  0  0  0  0  0  0  0  0  0
  126.1265  120.1131   83.6129 H   0  0  0  0  0  0  0  0  0  0  0  0
  127.3653  121.4139   83.6129 H   0  0  0  0  0  0  0  0  0  0  0  0
  124.0108  123.7402   83.6579 H   0  0  0  0  0  0  0  0  0  0  0  0
  120.9983  123.0069   85.4505 H   0  0  0  0  0  0  0  0  0  0  0  0
  1  2  1  0
  2  3  1  0
  3  4  2  0
  3  5  1  0
  5  6  2  0
  6  7  1  0
  7  8  2  0
  8  9  1  0
  9 10  2  0
  9 11  1  0
 11 12  1  0
  8 13  1  0
 13 14  1  0
 14 15  1  0
 15 16  2  0
 15 17  1  0
 17 18  1  0
 17 19  1  0
 17 20  1  0
 13 21  2  0
 21  5  1  0
  1 22  1  0
  1 23  1  0
  1 24  1  0
  6 25  1  0
  7 26  1  0
 12 27  1  0
 12 28  1  0
 12 29  1  0
 14 30  1  0
 21 31  1  0
M  END
>  <loss>  (5) 
0.6763322949409485

>  <score>  (5) 
1.694750189781189

$$$$
HSZVUJORSGYUKY-UHFFFAOYSA-N
     RDKit          3D

 31 31  0  0  0  0  0  0  0  0999 V2000
  124.9539  120.1057   90.4884 C   0  0  0  0  0  0  0  0  0  0  0  0
  124.3369  120.2001   89.2031 O   0  0  0  0  0  0  0  0  0  0  0  0
  123.3526  121.1316   89.1337 C   0  0  0  0  0  0  0  0  0  0  0  0
  122.6310  121.4739   90.0555 O   0  0  0  0  0  0  0  0  0  0  0  0
  123.2629  121.6965   87.7569 C   0  0  0  0  0  0  0  0  0  0  0  0
  124.3890  121.8535   86.9441 C   0  0  0  0  0  0  0  0  0  0  0  0
  124.2563  122.3871   85.6613 C   0  0  0  0  0  0  0  0  0  0  0  0
  122.9956  122.7720   85.1713 C   0  0  0  0  0  0  0  0  0  0  0  0
  122.8752  123.3420   83.7930 C   0  0  0  0  0  0  0  0  0  0  0  0
  122.2090  122.8158   82.9118 O   0  0  0  0  0  0  0  0  0  0  0  0
  123.5867  124.4880   83.6640 O   0  0  0  0  0  0  0  0  0  0  0  0
  123.5471  125.0585   82.3539 C   0  0  0  0  0  0  0  0  0  0  0  0
  121.8447  122.6176   85.9866 C   0  0  0  0  0  0  0  0  0  0  0  0
  120.5792  123.0112   85.4768 N   0  0  0  0  0  0  0  0  0  0  0  0
  119.4071  122.2649   85.3350 C   0  0  0  0  0  0  0  0  0  0  0  0
  119.3692  121.0372   85.4118 O   0  0  0  0  0  0  0  0  0  0  0  0
  118.1435  123.1296   85.0692 C   0  0  0  0  0  0  0  0  0  0  0  0
  118.5359  124.8352   85.4312 Cl  0  0  0  0  0  0  0  0  0  0  0  0
  117.6961  122.9672   83.3465 Cl  0  0  0  0  0  0  0  0  0  0  0  0
  116.7789  122.6081   86.0862 Cl  0  0  0  0  0  0  0  0  0  0  0  0
  121.9999  122.0792   87.2731 C   0  0  0  0  0  0  0  0  0  0  0  0
  124.1901  120.2226   91.2712 H   0  0  0  0  0  0  0  0  0  0  0  0
  125.4375  119.1231   90.5917 H   0  0  0  0  0  0  0  0  0  0  0  0
  125.7092  120.8987   90.5917 H   0  0  0  0  0  0  0  0  0  0  0  0
  125.3807  121.5563   87.3158 H   0  0  0  0  0  0  0  0  0  0  0  0
  125.1470  122.5078   85.0271 H   0  0  0  0  0  0  0  0  0  0  0  0
  123.4711  126.1530   82.4327 H   0  0  0  0  0  0  0  0  0  0  0  0
  124.4658  124.7929   81.8104 H   0  0  0  0  0  0  0  0  0  0  0  0
  122.6738  124.6685   81.8104 H   0  0  0  0  0  0  0  0  0  0  0  0
  120.5163  123.9911   85.1658 H   0  0  0  0  0  0  0  0  0  0  0  0
  121.1158  121.9542   87.9155 H   0  0  0  0  0  0  0  0  0  0  0  0
  1  2  1  0
  2  3  1  0
  3  4  2  0
  3  5  1  0
  5  6  2  0
  6  7  1  0
  7  8  2  0
  8  9  1  0
  9 10  2  0
  9 11  1  0
 11 12  1  0
  8 13  1  0
 13 14  1  0
 14 15  1  0
 15 16  2  0
 15 17  1  0
 17 18  1  0
 17 19  1  0
 17 20  1  0
 13 21  2  0
 21  5  1  0
  1 22  1  0
  1 23  1  0
  1 24  1  0
  6 25  1  0
  7 26  1  0
 12 27  1  0
 12 28  1  0
 12 29  1  0
 14 30  1  0
 21 31  1  0
M  END
>  <loss>  (6) 
0.7885499000549316

>  <score>  (6) 
1.834287405014038

$$$$
HSZVUJORSGYUKY-UHFFFAOYSA-N
     RDKit          3D

 31 31  0  0  0  0  0  0  0  0999 V2000
  122.5380  121.1542   91.1002 C   0  0  0  0  0  0  0  0  0  0  0  0
  122.1199  121.1313   89.7347 O   0  0  0  0  0  0  0  0  0  0  0  0
  123.1009  120.8064   88.8596 C   0  0  0  0  0  0  0  0  0  0  0  0
  123.9895  119.9909   89.0500 O   0  0  0  0  0  0  0  0  0  0  0  0
  122.9658  121.5849   87.5962 C   0  0  0  0  0  0  0  0  0  0  0  0
  124.1372  122.0174   86.9685 C   0  0  0  0  0  0  0  0  0  0  0  0
  124.0693  122.7499   85.7832 C   0  0  0  0  0  0  0  0  0  0  0  0
  122.8257  123.0616   85.2063 C   0  0  0  0  0  0  0  0  0  0  0  0
  122.7711  123.8482   83.9347 C   0  0  0  0  0  0  0  0  0  0  0  0
  122.8001  123.3252   82.8287 O   0  0  0  0  0  0  0  0  0  0  0  0
  122.6877  125.1789   84.1747 O   0  0  0  0  0  0  0  0  0  0  0  0
  122.7852  125.9938   83.0045 C   0  0  0  0  0  0  0  0  0  0  0  0
  121.6284  122.6284   85.8336 C   0  0  0  0  0  0  0  0  0  0  0  0
  120.3800  122.9515   85.2381 N   0  0  0  0  0  0  0  0  0  0  0  0
  119.5219  122.1501   84.4816 C   0  0  0  0  0  0  0  0  0  0  0  0
  119.8652  121.0877   83.9625 O   0  0  0  0  0  0  0  0  0  0  0  0
  118.0826  122.7228   84.3519 C   0  0  0  0  0  0  0  0  0  0  0  0
  117.5093  123.3780   85.9048 Cl  0  0  0  0  0  0  0  0  0  0  0  0
  118.0975  124.0241   83.1277 Cl  0  0  0  0  0  0  0  0  0  0  0  0
  116.9938  121.4084   83.8237 Cl  0  0  0  0  0  0  0  0  0  0  0  0
  121.7195  121.8927   87.0256 C   0  0  0  0  0  0  0  0  0  0  0  0
  121.6553  121.1057   91.7548 H   0  0  0  0  0  0  0  0  0  0  0  0
  123.1896  120.2905   91.2987 H   0  0  0  0  0  0  0  0  0  0  0  0
  123.0911  122.0841   91.2987 H   0  0  0  0  0  0  0  0  0  0  0  0
  125.1159  121.7795   87.4105 H   0  0  0  0  0  0  0  0  0  0  0  0
  124.9964  123.0863   85.2960 H   0  0  0  0  0  0  0  0  0  0  0  0
  122.9111  127.0460   83.2997 H   0  0  0  0  0  0  0  0  0  0  0  0
  123.6515  125.6747   82.4065 H   0  0  0  0  0  0  0  0  0  0  0  0
  121.8680  125.8880   82.4065 H   0  0  0  0  0  0  0  0  0  0  0  0
  120.0604  123.9194   85.3860 H   0  0  0  0  0  0  0  0  0  0  0  0
  120.7990  121.5511   87.5215 H   0  0  0  0  0  0  0  0  0  0  0  0
  1  2  1  0
  2  3  1  0
  3  4  2  0
  3  5  1  0
  5  6  2  0
  6  7  1  0
  7  8  2  0
  8  9  1  0
  9 10  2  0
  9 11  1  0
 11 12  1  0
  8 13  1  0
 13 14  1  0
 14 15  1  0
 15 16  2  0
 15 17  1  0
 17 18  1  0
 17 19  1  0
 17 20  1  0
 13 21  2  0
 21  5  1  0
  1 22  1  0
  1 23  1  0
  1 24  1  0
  6 25  1  0
  7 26  1  0
 12 27  1  0
 12 28  1  0
 12 29  1  0
 14 30  1  0
 21 31  1  0
M  END
>  <loss>  (7) 
0.7574990391731262

>  <score>  (7) 
1.6521286964416504

$$$$
HSZVUJORSGYUKY-UHFFFAOYSA-N
     RDKit          3D

 31 31  0  0  0  0  0  0  0  0999 V2000
  122.5837  121.2945   91.1200 C   0  0  0  0  0  0  0  0  0  0  0  0
  122.1010  121.2263   89.7776 O   0  0  0  0  0  0  0  0  0  0  0  0
  123.0199  120.8005   88.8787 C   0  0  0  0  0  0  0  0  0  0  0  0
  123.8304  119.9040   89.0529 O   0  0  0  0  0  0  0  0  0  0  0  0
  122.9240  121.5780   87.6112 C   0  0  0  0  0  0  0  0  0  0  0  0
  124.1151  121.9906   87.0076 C   0  0  0  0  0  0  0  0  0  0  0  0
  124.0841  122.7212   85.8197 C   0  0  0  0  0  0  0  0  0  0  0  0
  122.8581  123.0511   85.2158 C   0  0  0  0  0  0  0  0  0  0  0  0
  122.8429  123.8354   83.9417 C   0  0  0  0  0  0  0  0  0  0  0  0
  122.8529  123.3083   82.8374 O   0  0  0  0  0  0  0  0  0  0  0  0
  122.8174  125.1693   84.1776 O   0  0  0  0  0  0  0  0  0  0  0  0
  122.8400  125.9748   82.9970 C   0  0  0  0  0  0  0  0  0  0  0  0
  121.6410  122.6383   85.8183 C   0  0  0  0  0  0  0  0  0  0  0  0
  120.4109  122.9796   85.1958 N   0  0  0  0  0  0  0  0  0  0  0  0
  119.5148  122.1698   84.4940 C   0  0  0  0  0  0  0  0  0  0  0  0
  119.7792  121.0260   84.1232 O   0  0  0  0  0  0  0  0  0  0  0  0
  118.1423  122.8464   84.2201 C   0  0  0  0  0  0  0  0  0  0  0  0
  117.1906  122.9981   85.7169 Cl  0  0  0  0  0  0  0  0  0  0  0  0
  118.4363  124.4706   83.5361 Cl  0  0  0  0  0  0  0  0  0  0  0  0
  117.2422  121.8485   83.0427 Cl  0  0  0  0  0  0  0  0  0  0  0  0
  121.6952  121.9040   87.0135 C   0  0  0  0  0  0  0  0  0  0  0  0
  121.7424  121.1756   91.8186 H   0  0  0  0  0  0  0  0  0  0  0  0
  123.3159  120.4910   91.2877 H   0  0  0  0  0  0  0  0  0  0  0  0
  123.0645  122.2696   91.2877 H   0  0  0  0  0  0  0  0  0  0  0  0
  125.0804  121.7383   87.4709 H   0  0  0  0  0  0  0  0  0  0  0  0
  125.0265  123.0418   85.3516 H   0  0  0  0  0  0  0  0  0  0  0  0
  122.8698  127.0377   83.2788 H   0  0  0  0  0  0  0  0  0  0  0  0
  123.7316  125.7282   82.4018 H   0  0  0  0  0  0  0  0  0  0  0  0
  121.9360  125.7785   82.4018 H   0  0  0  0  0  0  0  0  0  0  0  0
  120.1395  123.9702   85.2732 H   0  0  0  0  0  0  0  0  0  0  0  0
  120.7590  121.5782   87.4903 H   0  0  0  0  0  0  0  0  0  0  0  0
  1  2  1  0
  2  3  1  0
  3  4  2  0
  3  5  1  0
  5  6  2  0
  6  7  1  0
  7  8  2  0
  8  9  1  0
  9 10  2  0
  9 11  1  0
 11 12  1  0
  8 13  1  0
 13 14  1  0
 14 15  1  0
 15 16  2  0
 15 17  1  0
 17 18  1  0
 17 19  1  0
 17 20  1  0
 13 21  2  0
 21  5  1  0
  1 22  1  0
  1 23  1  0
  1 24  1  0
  6 25  1  0
  7 26  1  0
 12 27  1  0
 12 28  1  0
 12 29  1  0
 14 30  1  0
 21 31  1  0
M  END
>  <loss>  (8) 
0.7593040466308594

>  <score>  (8) 
1.636698603630066

$$$$
HSZVUJORSGYUKY-UHFFFAOYSA-N
     RDKit          3D

 31 31  0  0  0  0  0  0  0  0999 V2000
  124.5631  120.2702   90.0868 C   0  0  0  0  0  0  0  0  0  0  0  0
  123.5733  119.9780   89.0986 O   0  0  0  0  0  0  0  0  0  0  0  0
  122.6170  120.9334   88.9802 C   0  0  0  0  0  0  0  0  0  0  0  0
  121.7521  121.1800   89.8042 O   0  0  0  0  0  0  0  0  0  0  0  0
  122.7604  121.6599   87.6862 C   0  0  0  0  0  0  0  0  0  0  0  0
  124.0091  122.0159   87.1693 C   0  0  0  0  0  0  0  0  0  0  0  0
  124.0944  122.6958   85.9534 C   0  0  0  0  0  0  0  0  0  0  0  0
  122.9323  123.0303   85.2356 C   0  0  0  0  0  0  0  0  0  0  0  0
  123.0457  123.7594   83.9338 C   0  0  0  0  0  0  0  0  0  0  0  0
  123.0106  123.1935   82.8495 O   0  0  0  0  0  0  0  0  0  0  0  0
  123.1884  125.0939   84.1211 O   0  0  0  0  0  0  0  0  0  0  0  0
  123.2585  125.8517   82.9111 C   0  0  0  0  0  0  0  0  0  0  0  0
  121.6587  122.6745   85.7497 C   0  0  0  0  0  0  0  0  0  0  0  0
  120.4952  123.0196   85.0124 N   0  0  0  0  0  0  0  0  0  0  0  0
  119.7504  122.2501   84.1158 C   0  0  0  0  0  0  0  0  0  0  0  0
  120.1958  121.2597   83.5367 O   0  0  0  0  0  0  0  0  0  0  0  0
  118.2964  122.7596   83.9121 C   0  0  0  0  0  0  0  0  0  0  0  0
  118.0527  123.1022   82.1750 Cl  0  0  0  0  0  0  0  0  0  0  0  0
  117.1072  121.5488   84.4485 Cl  0  0  0  0  0  0  0  0  0  0  0  0
  118.0829  124.2611   84.8578 Cl  0  0  0  0  0  0  0  0  0  0  0  0
  121.5950  121.9913   86.9736 C   0  0  0  0  0  0  0  0  0  0  0  0
  124.1291  120.1421   91.0894 H   0  0  0  0  0  0  0  0  0  0  0  0
  125.4153  119.5853   89.9659 H   0  0  0  0  0  0  0  0  0  0  0  0
  124.9068  121.3081   89.9659 H   0  0  0  0  0  0  0  0  0  0  0  0
  124.9256  121.7599   87.7212 H   0  0  0  0  0  0  0  0  0  0  0  0
  125.0806  122.9728   85.5526 H   0  0  0  0  0  0  0  0  0  0  0  0
  123.3573  126.9202   83.1528 H   0  0  0  0  0  0  0  0  0  0  0  0
  124.1304  125.5263   82.3246 H   0  0  0  0  0  0  0  0  0  0  0  0
  122.3417  125.6917   82.3246 H   0  0  0  0  0  0  0  0  0  0  0  0
  120.1496  123.9786   85.1607 H   0  0  0  0  0  0  0  0  0  0  0  0
  120.6139  121.7095   87.3835 H   0  0  0  0  0  0  0  0  0  0  0  0
  1  2  1  0
  2  3  1  0
  3  4  2  0
  3  5  1  0
  5  6  2  0
  6  7  1  0
  7  8  2  0
  8  9  1  0
  9 10  2  0
  9 11  1  0
 11 12  1  0
  8 13  1  0
 13 14  1  0
 14 15  1  0
 15 16  2  0
 15 17  1  0
 17 18  1  0
 17 19  1  0
 17 20  1  0
 13 21  2  0
 21  5  1  0
  1 22  1  0
  1 23  1  0
  1 24  1  0
  6 25  1  0
  7 26  1  0
 12 27  1  0
 12 28  1  0
 12 29  1  0
 14 30  1  0
 21 31  1  0
M  END
>  <loss>  (9) 
0.7622045874595642

>  <score>  (9) 
1.5969151258468628

$$$$
HSZVUJORSGYUKY-UHFFFAOYSA-N
     RDKit          3D

 31 31  0  0  0  0  0  0  0  0999 V2000
  124.5238  120.2196   90.2626 C   0  0  0  0  0  0  0  0  0  0  0  0
  123.6872  120.0300   89.1200 O   0  0  0  0  0  0  0  0  0  0  0  0
  122.7018  120.9554   89.0015 C   0  0  0  0  0  0  0  0  0  0  0  0
  121.8410  121.1884   89.8336 O   0  0  0  0  0  0  0  0  0  0  0  0
  122.8069  121.6674   87.6958 C   0  0  0  0  0  0  0  0  0  0  0  0
  124.0402  122.0040   87.1311 C   0  0  0  0  0  0  0  0  0  0  0  0
  124.0895  122.6708   85.9060 C   0  0  0  0  0  0  0  0  0  0  0  0
  122.9062  123.0114   85.2266 C   0  0  0  0  0  0  0  0  0  0  0  0
  122.9811  123.7263   83.9142 C   0  0  0  0  0  0  0  0  0  0  0  0
  122.9900  123.1427   82.8388 O   0  0  0  0  0  0  0  0  0  0  0  0
  123.0360  125.0699   84.0812 O   0  0  0  0  0  0  0  0  0  0  0  0
  123.1929  125.8060   82.8660 C   0  0  0  0  0  0  0  0  0  0  0  0
  121.6479  122.6753   85.7894 C   0  0  0  0  0  0  0  0  0  0  0  0
  120.4627  123.0264   85.0906 N   0  0  0  0  0  0  0  0  0  0  0  0
  119.5991  122.2210   84.3448 C   0  0  0  0  0  0  0  0  0  0  0  0
  119.9328  121.1471   83.8449 O   0  0  0  0  0  0  0  0  0  0  0  0
  118.1666  122.8061   84.2006 C   0  0  0  0  0  0  0  0  0  0  0  0
  117.9188  123.2886   82.4977 Cl  0  0  0  0  0  0  0  0  0  0  0  0
  118.0293  124.2397   85.2589 Cl  0  0  0  0  0  0  0  0  0  0  0  0
  116.9316  121.6101   84.6620 Cl  0  0  0  0  0  0  0  0  0  0  0  0
  121.6205  122.0050   87.0218 C   0  0  0  0  0  0  0  0  0  0  0  0
  123.9297  120.0849   91.1785 H   0  0  0  0  0  0  0  0  0  0  0  0
  125.3414  119.4839   90.2445 H   0  0  0  0  0  0  0  0  0  0  0  0
  124.9445  121.2358   90.2445 H   0  0  0  0  0  0  0  0  0  0  0  0
  124.9729  121.7431   87.6526 H   0  0  0  0  0  0  0  0  0  0  0  0
  125.0637  122.9326   85.4674 H   0  0  0  0  0  0  0  0  0  0  0  0
  123.4170  126.8571   83.1003 H   0  0  0  0  0  0  0  0  0  0  0  0
  124.0197  125.3764   82.2812 H   0  0  0  0  0  0  0  0  0  0  0  0
  122.2628  125.7509   82.2812 H   0  0  0  0  0  0  0  0  0  0  0  0
  120.2014  124.0215   85.1412 H   0  0  0  0  0  0  0  0  0  0  0  0
  120.6516  121.7385   87.4693 H   0  0  0  0  0  0  0  0  0  0  0  0
  1  2  1  0
  2  3  1  0
  3  4  2  0
  3  5  1  0
  5  6  2  0
  6  7  1  0
  7  8  2  0
  8  9  1  0
  9 10  2  0
  9 11  1  0
 11 12  1  0
  8 13  1  0
 13 14  1  0
 14 15  1  0
 15 16  2  0
 15 17  1  0
 17 18  1  0
 17 19  1  0
 17 20  1  0
 13 21  2  0
 21  5  1  0
  1 22  1  0
  1 23  1  0
  1 24  1  0
  6 25  1  0
  7 26  1  0
 12 27  1  0
 12 28  1  0
 12 29  1  0
 14 30  1  0
 21 31  1  0
M  END
>  <loss>  (10) 
0.7633581161499023

>  <score>  (10) 
1.6015374660491943

$$$$
HSZVUJORSGYUKY-UHFFFAOYSA-N
     RDKit          3D

 31 31  0  0  0  0  0  0  0  0999 V2000
  122.5278  121.1045   91.0677 C   0  0  0  0  0  0  0  0  0  0  0  0
  122.1065  121.2082   89.7071 O   0  0  0  0  0  0  0  0  0  0  0  0
  123.0270  120.7872   88.8076 C   0  0  0  0  0  0  0  0  0  0  0  0
  123.8223  119.8750   88.9702 O   0  0  0  0  0  0  0  0  0  0  0  0
  122.9546  121.5923   87.5559 C   0  0  0  0  0  0  0  0  0  0  0  0
  124.1529  122.0681   87.0164 C   0  0  0  0  0  0  0  0  0  0  0  0
  124.1436  122.8270   85.8460 C   0  0  0  0  0  0  0  0  0  0  0  0
  122.9327  123.1224   85.1957 C   0  0  0  0  0  0  0  0  0  0  0  0
  122.9409  123.9377   83.9412 C   0  0  0  0  0  0  0  0  0  0  0  0
  122.9688  123.4379   82.8246 O   0  0  0  0  0  0  0  0  0  0  0  0
  122.9138  125.2655   84.2093 O   0  0  0  0  0  0  0  0  0  0  0  0
  123.0901  126.0998   83.0621 C   0  0  0  0  0  0  0  0  0  0  0  0
  121.7086  122.6454   85.7329 C   0  0  0  0  0  0  0  0  0  0  0  0
  120.4938  122.9524   85.0641 N   0  0  0  0  0  0  0  0  0  0  0  0
  119.8010  122.2193   84.0977 C   0  0  0  0  0  0  0  0  0  0  0  0
  120.2912  121.2724   83.4820 O   0  0  0  0  0  0  0  0  0  0  0  0
  118.3439  122.7088   83.8663 C   0  0  0  0  0  0  0  0  0  0  0  0
  117.9103  122.6431   82.1409 Cl  0  0  0  0  0  0  0  0  0  0  0  0
  117.2376  121.6589   84.7969 Cl  0  0  0  0  0  0  0  0  0  0  0  0
  118.2114  124.3929   84.4481 Cl  0  0  0  0  0  0  0  0  0  0  0  0
  121.7407  121.8835   86.9115 C   0  0  0  0  0  0  0  0  0  0  0  0
  121.6765  121.3140   91.7322 H   0  0  0  0  0  0  0  0  0  0  0  0
  122.9012  120.0878   91.2595 H   0  0  0  0  0  0  0  0  0  0  0  0
  123.3303  121.8321   91.2595 H   0  0  0  0  0  0  0  0  0  0  0  0
  125.1066  121.8434   87.5164 H   0  0  0  0  0  0  0  0  0  0  0  0
  125.0915  123.1974   85.4285 H   0  0  0  0  0  0  0  0  0  0  0  0
  123.3073  127.1282   83.3866 H   0  0  0  0  0  0  0  0  0  0  0  0
  123.9280  125.7210   82.4585 H   0  0  0  0  0  0  0  0  0  0  0  0
  122.1705  126.0923   82.4585 H   0  0  0  0  0  0  0  0  0  0  0  0
  120.0597  123.8475   85.3309 H   0  0  0  0  0  0  0  0  0  0  0  0
  120.7989  121.5080   87.3380 H   0  0  0  0  0  0  0  0  0  0  0  0
  1  2  1  0
  2  3  1  0
  3  4  2  0
  3  5  1  0
  5  6  2  0
  6  7  1  0
  7  8  2  0
  8  9  1  0
  9 10  2  0
  9 11  1  0
 11 12  1  0
  8 13  1  0
 13 14  1  0
 14 15  1  0
 15 16  2  0
 15 17  1  0
 17 18  1  0
 17 19  1  0
 17 20  1  0
 13 21  2  0
 21  5  1  0
  1 22  1  0
  1 23  1  0
  1 24  1  0
  6 25  1  0
  7 26  1  0
 12 27  1  0
 12 28  1  0
 12 29  1  0
 14 30  1  0
 21 31  1  0
M  END
>  <loss>  (11) 
0.7593300938606262

>  <score>  (11) 
1.5762536525726318

$$$$
HSZVUJORSGYUKY-UHFFFAOYSA-N
     RDKit          3D

 31 31  0  0  0  0  0  0  0  0999 V2000
  124.6200  120.2098   90.0747 C   0  0  0  0  0  0  0  0  0  0  0  0
  123.6745  120.0120   89.0219 O   0  0  0  0  0  0  0  0  0  0  0  0
  122.7169  120.9712   88.9566 C   0  0  0  0  0  0  0  0  0  0  0  0
  121.8998  121.2210   89.8271 O   0  0  0  0  0  0  0  0  0  0  0  0
  122.7917  121.6977   87.6568 C   0  0  0  0  0  0  0  0  0  0  0  0
  124.0081  122.1105   87.1062 C   0  0  0  0  0  0  0  0  0  0  0  0
  124.0291  122.7880   85.8862 C   0  0  0  0  0  0  0  0  0  0  0  0
  122.8340  123.0633   85.1979 C   0  0  0  0  0  0  0  0  0  0  0  0
  122.8786  123.7910   83.8911 C   0  0  0  0  0  0  0  0  0  0  0  0
  122.9596  123.2175   82.8132 O   0  0  0  0  0  0  0  0  0  0  0  0
  122.8182  125.1333   84.0660 O   0  0  0  0  0  0  0  0  0  0  0  0
  123.0166  125.8901   82.8698 C   0  0  0  0  0  0  0  0  0  0  0  0
  121.5927  122.6495   85.7464 C   0  0  0  0  0  0  0  0  0  0  0  0
  120.3952  122.9353   85.0387 N   0  0  0  0  0  0  0  0  0  0  0  0
  119.6087  122.0952   84.2472 C   0  0  0  0  0  0  0  0  0  0  0  0
  120.0346  121.0747   83.7071 O   0  0  0  0  0  0  0  0  0  0  0  0
  118.1346  122.5672   84.1076 C   0  0  0  0  0  0  0  0  0  0  0  0
  117.9136  124.0398   85.0960 Cl  0  0  0  0  0  0  0  0  0  0  0  0
  117.8187  122.9424   82.3889 Cl  0  0  0  0  0  0  0  0  0  0  0  0
  116.9998  121.3107   84.6567 Cl  0  0  0  0  0  0  0  0  0  0  0  0
  121.5936  121.9697   86.9739 C   0  0  0  0  0  0  0  0  0  0  0  0
  124.1146  120.1041   91.0460 H   0  0  0  0  0  0  0  0  0  0  0  0
  125.4205  119.4597   89.9944 H   0  0  0  0  0  0  0  0  0  0  0  0
  125.0527  121.2179   89.9944 H   0  0  0  0  0  0  0  0  0  0  0  0
  124.9498  121.9012   87.6348 H   0  0  0  0  0  0  0  0  0  0  0  0
  124.9901  123.1100   85.4587 H   0  0  0  0  0  0  0  0  0  0  0  0
  123.2877  126.9238   83.1305 H   0  0  0  0  0  0  0  0  0  0  0  0
  123.8263  125.4367   82.2791 H   0  0  0  0  0  0  0  0  0  0  0  0
  122.0887  125.8923   82.2791 H   0  0  0  0  0  0  0  0  0  0  0  0
  120.0569  123.9046   85.1212 H   0  0  0  0  0  0  0  0  0  0  0  0
  120.6381  121.6434   87.4103 H   0  0  0  0  0  0  0  0  0  0  0  0
  1  2  1  0
  2  3  1  0
  3  4  2  0
  3  5  1  0
  5  6  2  0
  6  7  1  0
  7  8  2  0
  8  9  1  0
  9 10  2  0
  9 11  1  0
 11 12  1  0
  8 13  1  0
 13 14  1  0
 14 15  1  0
 15 16  2  0
 15 17  1  0
 17 18  1  0
 17 19  1  0
 17 20  1  0
 13 21  2  0
 21  5  1  0
  1 22  1  0
  1 23  1  0
  1 24  1  0
  6 25  1  0
  7 26  1  0
 12 27  1  0
 12 28  1  0
 12 29  1  0
 14 30  1  0
 21 31  1  0
M  END
>  <loss>  (12) 
0.7625124454498291

>  <score>  (12) 
1.5757502317428589

$$$$
HSZVUJORSGYUKY-UHFFFAOYSA-N
     RDKit          3D

 31 31  0  0  0  0  0  0  0  0999 V2000
  124.6003  120.2569   90.1380 C   0  0  0  0  0  0  0  0  0  0  0  0
  123.6302  119.9991   89.1213 O   0  0  0  0  0  0  0  0  0  0  0  0
  122.6738  120.9564   89.0196 C   0  0  0  0  0  0  0  0  0  0  0  0
  121.8326  121.2139   89.8645 O   0  0  0  0  0  0  0  0  0  0  0  0
  122.7839  121.6697   87.7151 C   0  0  0  0  0  0  0  0  0  0  0  0
  124.0192  122.0131   87.1588 C   0  0  0  0  0  0  0  0  0  0  0  0
  124.0732  122.6809   85.9345 C   0  0  0  0  0  0  0  0  0  0  0  0
  122.8928  123.0156   85.2473 C   0  0  0  0  0  0  0  0  0  0  0  0
  122.9727  123.7317   83.9358 C   0  0  0  0  0  0  0  0  0  0  0  0
  123.0486  123.1479   82.8632 O   0  0  0  0  0  0  0  0  0  0  0  0
  122.9499  125.0765   84.1002 O   0  0  0  0  0  0  0  0  0  0  0  0
  123.1439  125.8182   82.8938 C   0  0  0  0  0  0  0  0  0  0  0  0
  121.6325  122.6726   85.8015 C   0  0  0  0  0  0  0  0  0  0  0  0
  120.4502  123.0179   85.0949 N   0  0  0  0  0  0  0  0  0  0  0  0
  119.6042  122.2113   84.3303 C   0  0  0  0  0  0  0  0  0  0  0  0
  119.9534  121.1431   83.8286 O   0  0  0  0  0  0  0  0  0  0  0  0
  118.1699  122.7870   84.1676 C   0  0  0  0  0  0  0  0  0  0  0  0
  117.8121  122.9358   82.4229 Cl  0  0  0  0  0  0  0  0  0  0  0  0
  118.1153  124.4009   84.9334 Cl  0  0  0  0  0  0  0  0  0  0  0  0
  116.9593  121.7289   84.9313 Cl  0  0  0  0  0  0  0  0  0  0  0  0
  121.6003  122.0014   87.0333 C   0  0  0  0  0  0  0  0  0  0  0  0
  124.1360  120.1335   91.1276 H   0  0  0  0  0  0  0  0  0  0  0  0
  125.4366  119.5498   90.0347 H   0  0  0  0  0  0  0  0  0  0  0  0
  124.9753  121.2858   90.0347 H   0  0  0  0  0  0  0  0  0  0  0  0
  124.9498  121.7568   87.6865 H   0  0  0  0  0  0  0  0  0  0  0  0
  125.0490  122.9481   85.5026 H   0  0  0  0  0  0  0  0  0  0  0  0
  123.4151  126.8553   83.1405 H   0  0  0  0  0  0  0  0  0  0  0  0
  123.9518  125.3577   82.3062 H   0  0  0  0  0  0  0  0  0  0  0  0
  122.2140  125.8123   82.3062 H   0  0  0  0  0  0  0  0  0  0  0  0
  120.1761  124.0089   85.1551 H   0  0  0  0  0  0  0  0  0  0  0  0
  120.6299  121.7296   87.4741 H   0  0  0  0  0  0  0  0  0  0  0  0
  1  2  1  0
  2  3  1  0
  3  4  2  0
  3  5  1  0
  5  6  2  0
  6  7  1  0
  7  8  2  0
  8  9  1  0
  9 10  2  0
  9 11  1  0
 11 12  1  0
  8 13  1  0
 13 14  1  0
 14 15  1  0
 15 16  2  0
 15 17  1  0
 17 18  1  0
 17 19  1  0
 17 20  1  0
 13 21  2  0
 21  5  1  0
  1 22  1  0
  1 23  1  0
  1 24  1  0
  6 25  1  0
  7 26  1  0
 12 27  1  0
 12 28  1  0
 12 29  1  0
 14 30  1  0
 21 31  1  0
M  END
>  <loss>  (13) 
0.7628424763679504

>  <score>  (13) 
1.5644032955169678

$$$$
HSZVUJORSGYUKY-UHFFFAOYSA-N
     RDKit          3D

 31 31  0  0  0  0  0  0  0  0999 V2000
  124.5930  120.3597   89.8947 C   0  0  0  0  0  0  0  0  0  0  0  0
  123.4547  119.9771   89.1205 O   0  0  0  0  0  0  0  0  0  0  0  0
  122.5329  120.9623   88.9758 C   0  0  0  0  0  0  0  0  0  0  0  0
  121.6562  121.2394   89.7773 O   0  0  0  0  0  0  0  0  0  0  0  0
  122.7317  121.6794   87.6839 C   0  0  0  0  0  0  0  0  0  0  0  0
  124.0024  122.0202   87.2121 C   0  0  0  0  0  0  0  0  0  0  0  0
  124.1398  122.6917   85.9964 C   0  0  0  0  0  0  0  0  0  0  0  0
  123.0087  123.0330   85.2336 C   0  0  0  0  0  0  0  0  0  0  0  0
  123.1779  123.7530   83.9328 C   0  0  0  0  0  0  0  0  0  0  0  0
  123.2536  123.1742   82.8574 O   0  0  0  0  0  0  0  0  0  0  0  0
  123.2336  125.0953   84.1099 O   0  0  0  0  0  0  0  0  0  0  0  0
  123.3804  125.8410   82.8993 C   0  0  0  0  0  0  0  0  0  0  0  0
  121.7133  122.6926   85.7016 C   0  0  0  0  0  0  0  0  0  0  0  0
  120.5816  123.0444   84.9194 N   0  0  0  0  0  0  0  0  0  0  0  0
  119.8567  122.2732   84.0080 C   0  0  0  0  0  0  0  0  0  0  0  0
  120.2804  121.2297   83.5120 O   0  0  0  0  0  0  0  0  0  0  0  0
  118.4551  122.8546   83.6725 C   0  0  0  0  0  0  0  0  0  0  0  0
  118.5963  124.6304   83.5284 Cl  0  0  0  0  0  0  0  0  0  0  0  0
  117.8271  122.1856   82.1472 Cl  0  0  0  0  0  0  0  0  0  0  0  0
  117.3366  122.4456   85.0052 Cl  0  0  0  0  0  0  0  0  0  0  0  0
  121.5971  122.0176   86.9263 C   0  0  0  0  0  0  0  0  0  0  0  0
  124.3525  120.2788   90.9650 H   0  0  0  0  0  0  0  0  0  0  0  0
  125.4376  119.6960   89.6576 H   0  0  0  0  0  0  0  0  0  0  0  0
  124.8653  121.3987   89.6576 H   0  0  0  0  0  0  0  0  0  0  0  0
  124.8950  121.7588   87.7994 H   0  0  0  0  0  0  0  0  0  0  0  0
  125.1429  122.9568   85.6311 H   0  0  0  0  0  0  0  0  0  0  0  0
  123.5877  126.8941   83.1402 H   0  0  0  0  0  0  0  0  0  0  0  0
  124.2145  125.4279   82.3131 H   0  0  0  0  0  0  0  0  0  0  0  0
  122.4520  125.7748   82.3131 H   0  0  0  0  0  0  0  0  0  0  0  0
  120.2460  124.0105   85.0420 H   0  0  0  0  0  0  0  0  0  0  0  0
  120.5986  121.7478   87.3007 H   0  0  0  0  0  0  0  0  0  0  0  0
  1  2  1  0
  2  3  1  0
  3  4  2  0
  3  5  1  0
  5  6  2  0
  6  7  1  0
  7  8  2  0
  8  9  1  0
  9 10  2  0
  9 11  1  0
 11 12  1  0
  8 13  1  0
 13 14  1  0
 14 15  1  0
 15 16  2  0
 15 17  1  0
 17 18  1  0
 17 19  1  0
 17 20  1  0
 13 21  2  0
 21  5  1  0
  1 22  1  0
  1 23  1  0
  1 24  1  0
  6 25  1  0
  7 26  1  0
 12 27  1  0
 12 28  1  0
 12 29  1  0
 14 30  1  0
 21 31  1  0
M  END
>  <loss>  (14) 
0.7665945291519165

>  <score>  (14) 
1.5751489400863647

$$$$
HSZVUJORSGYUKY-UHFFFAOYSA-N
     RDKit          3D

 31 31  0  0  0  0  0  0  0  0999 V2000
  124.4404  119.8435   89.6693 C   0  0  0  0  0  0  0  0  0  0  0  0
  123.1880  119.8685   88.9820 O   0  0  0  0  0  0  0  0  0  0  0  0
  122.5747  121.0787   89.0022 C   0  0  0  0  0  0  0  0  0  0  0  0
  121.9833  121.5606   89.9540 O   0  0  0  0  0  0  0  0  0  0  0  0
  122.7184  121.7603   87.6841 C   0  0  0  0  0  0  0  0  0  0  0  0
  123.9669  122.1043   87.1585 C   0  0  0  0  0  0  0  0  0  0  0  0
  124.0525  122.7418   85.9199 C   0  0  0  0  0  0  0  0  0  0  0  0
  122.8909  123.0453   85.1876 C   0  0  0  0  0  0  0  0  0  0  0  0
  123.0046  123.7291   83.8615 C   0  0  0  0  0  0  0  0  0  0  0  0
  123.0304  123.1211   82.8000 O   0  0  0  0  0  0  0  0  0  0  0  0
  123.0730  125.0754   83.9995 O   0  0  0  0  0  0  0  0  0  0  0  0
  123.3449  125.7765   82.7839 C   0  0  0  0  0  0  0  0  0  0  0  0
  121.6175  122.7013   85.7102 C   0  0  0  0  0  0  0  0  0  0  0  0
  120.4545  123.0147   84.9582 N   0  0  0  0  0  0  0  0  0  0  0  0
  119.6825  122.1946   84.1322 C   0  0  0  0  0  0  0  0  0  0  0  0
  120.0759  121.1182   83.6835 O   0  0  0  0  0  0  0  0  0  0  0  0
  118.2701  122.7665   83.8270 C   0  0  0  0  0  0  0  0  0  0  0  0
  117.9571  124.1303   84.9388 Cl  0  0  0  0  0  0  0  0  0  0  0  0
  118.1544  123.3365   82.1447 Cl  0  0  0  0  0  0  0  0  0  0  0  0
  117.0636  121.4768   84.1011 Cl  0  0  0  0  0  0  0  0  0  0  0  0
  121.5535  122.0608   86.9571 C   0  0  0  0  0  0  0  0  0  0  0  0
  124.2630  119.8470   90.7549 H   0  0  0  0  0  0  0  0  0  0  0  0
  124.9933  118.9341   89.3911 H   0  0  0  0  0  0  0  0  0  0  0  0
  125.0291  120.7301   89.3911 H   0  0  0  0  0  0  0  0  0  0  0  0
  124.8830  121.8724   87.7216 H   0  0  0  0  0  0  0  0  0  0  0  0
  125.0385  123.0096   85.5124 H   0  0  0  0  0  0  0  0  0  0  0  0
  123.7337  126.7786   83.0176 H   0  0  0  0  0  0  0  0  0  0  0  0
  124.0925  125.2203   82.1992 H   0  0  0  0  0  0  0  0  0  0  0  0
  122.4178  125.8700   82.1992 H   0  0  0  0  0  0  0  0  0  0  0  0
  120.1330  123.9904   85.0327 H   0  0  0  0  0  0  0  0  0  0  0  0
  120.5726  121.7886   87.3738 H   0  0  0  0  0  0  0  0  0  0  0  0
  1  2  1  0
  2  3  1  0
  3  4  2  0
  3  5  1  0
  5  6  2  0
  6  7  1  0
  7  8  2  0
  8  9  1  0
  9 10  2  0
  9 11  1  0
 11 12  1  0
  8 13  1  0
 13 14  1  0
 14 15  1  0
 15 16  2  0
 15 17  1  0
 17 18  1  0
 17 19  1  0
 17 20  1  0
 13 21  2  0
 21  5  1  0
  1 22  1  0
  1 23  1  0
  1 24  1  0
  6 25  1  0
  7 26  1  0
 12 27  1  0
 12 28  1  0
 12 29  1  0
 14 30  1  0
 21 31  1  0
M  END
>  <loss>  (15) 
0.7620373368263245

>  <score>  (15) 
1.536621332168579

$$$$
HSZVUJORSGYUKY-UHFFFAOYSA-N
     RDKit          3D

 31 31  0  0  0  0  0  0  0  0999 V2000
  124.5253  120.1121   89.8678 C   0  0  0  0  0  0  0  0  0  0  0  0
  123.3720  119.9292   89.0445 O   0  0  0  0  0  0  0  0  0  0  0  0
  122.5619  121.0161   88.9851 C   0  0  0  0  0  0  0  0  0  0  0  0
  121.8004  121.3846   89.8638 O   0  0  0  0  0  0  0  0  0  0  0  0
  122.7240  121.7189   87.6802 C   0  0  0  0  0  0  0  0  0  0  0  0
  123.9799  122.0678   87.1761 C   0  0  0  0  0  0  0  0  0  0  0  0
  124.0828  122.7253   85.9493 C   0  0  0  0  0  0  0  0  0  0  0  0
  122.9313  123.0441   85.2076 C   0  0  0  0  0  0  0  0  0  0  0  0
  123.0636  123.7493   83.8944 C   0  0  0  0  0  0  0  0  0  0  0  0
  123.1158  123.1579   82.8245 O   0  0  0  0  0  0  0  0  0  0  0  0
  123.1156  125.0939   84.0541 O   0  0  0  0  0  0  0  0  0  0  0  0
  123.4288  125.8146   82.8600 C   0  0  0  0  0  0  0  0  0  0  0  0
  121.6505  122.6953   85.7085 C   0  0  0  0  0  0  0  0  0  0  0  0
  120.4979  123.0244   84.9472 N   0  0  0  0  0  0  0  0  0  0  0  0
  119.7566  122.2308   84.0688 C   0  0  0  0  0  0  0  0  0  0  0  0
  120.1838  121.1923   83.5653 O   0  0  0  0  0  0  0  0  0  0  0  0
  118.3317  122.7801   83.7808 C   0  0  0  0  0  0  0  0  0  0  0  0
  118.1744  124.3842   84.5530 Cl  0  0  0  0  0  0  0  0  0  0  0  0
  118.1317  122.9410   82.0121 Cl  0  0  0  0  0  0  0  0  0  0  0  0
  117.0783  121.6903   84.4209 Cl  0  0  0  0  0  0  0  0  0  0  0  0
  121.5692  122.0347   86.9438 C   0  0  0  0  0  0  0  0  0  0  0  0
  124.2311  120.0654   90.9267 H   0  0  0  0  0  0  0  0  0  0  0  0
  125.2571  119.3188   89.6553 H   0  0  0  0  0  0  0  0  0  0  0  0
  124.9757  121.0929   89.6553 H   0  0  0  0  0  0  0  0  0  0  0  0
  124.8882  121.8240   87.7467 H   0  0  0  0  0  0  0  0  0  0  0  0
  125.0746  122.9968   85.5586 H   0  0  0  0  0  0  0  0  0  0  0  0
  123.8544  126.7940   83.1238 H   0  0  0  0  0  0  0  0  0  0  0  0
  124.1602  125.2442   82.2687 H   0  0  0  0  0  0  0  0  0  0  0  0
  122.5127  125.9601   82.2687 H   0  0  0  0  0  0  0  0  0  0  0  0
  120.1587  123.9905   85.0592 H   0  0  0  0  0  0  0  0  0  0  0  0
  120.5823  121.7585   87.3436 H   0  0  0  0  0  0  0  0  0  0  0  0
  1  2  1  0
  2  3  1  0
  3  4  2  0
  3  5  1  0
  5  6  2  0
  6  7  1  0
  7  8  2  0
  8  9  1  0
  9 10  2  0
  9 11  1  0
 11 12  1  0
  8 13  1  0
 13 14  1  0
 14 15  1  0
 15 16  2  0
 15 17  1  0
 17 18  1  0
 17 19  1  0
 17 20  1  0
 13 21  2  0
 21  5  1  0
  1 22  1  0
  1 23  1  0
  1 24  1  0
  6 25  1  0
  7 26  1  0
 12 27  1  0
 12 28  1  0
 12 29  1  0
 14 30  1  0
 21 31  1  0
M  END
>  <loss>  (16) 
0.7617630958557129

>  <score>  (16) 
1.5053755044937134

$$$$
HSZVUJORSGYUKY-UHFFFAOYSA-N
     RDKit          3D

 31 31  0  0  0  0  0  0  0  0999 V2000
  124.4934  119.9735   89.6672 C   0  0  0  0  0  0  0  0  0  0  0  0
  123.2328  119.8873   89.0002 O   0  0  0  0  0  0  0  0  0  0  0  0
  122.5370  121.0523   88.9886 C   0  0  0  0  0  0  0  0  0  0  0  0
  121.8685  121.4907   89.9098 O   0  0  0  0  0  0  0  0  0  0  0  0
  122.6968  121.7442   87.6776 C   0  0  0  0  0  0  0  0  0  0  0  0
  123.9517  122.0910   87.1695 C   0  0  0  0  0  0  0  0  0  0  0  0
  124.0523  122.7382   85.9371 C   0  0  0  0  0  0  0  0  0  0  0  0
  122.8996  123.0486   85.1936 C   0  0  0  0  0  0  0  0  0  0  0  0
  123.0295  123.7429   83.8744 C   0  0  0  0  0  0  0  0  0  0  0  0
  123.0470  123.1446   82.8072 O   0  0  0  0  0  0  0  0  0  0  0  0
  123.1222  125.0863   84.0254 O   0  0  0  0  0  0  0  0  0  0  0  0
  123.3511  125.7989   82.8076 C   0  0  0  0  0  0  0  0  0  0  0  0
  121.6199  122.7018   85.6986 C   0  0  0  0  0  0  0  0  0  0  0  0
  120.4661  123.0224   84.9355 N   0  0  0  0  0  0  0  0  0  0  0  0
  119.7363  122.2255   84.0506 C   0  0  0  0  0  0  0  0  0  0  0  0
  120.1663  121.1801   83.5641 O   0  0  0  0  0  0  0  0  0  0  0  0
  118.3202  122.7807   83.7315 C   0  0  0  0  0  0  0  0  0  0  0  0
  118.4615  124.5263   83.3750 Cl  0  0  0  0  0  0  0  0  0  0  0  0
  117.2799  122.5409   85.1649 Cl  0  0  0  0  0  0  0  0  0  0  0  0
  117.6006  121.9478   82.3326 Cl  0  0  0  0  0  0  0  0  0  0  0  0
  121.5408  122.0516   86.9395 C   0  0  0  0  0  0  0  0  0  0  0  0
  124.3339  119.9626   90.7555 H   0  0  0  0  0  0  0  0  0  0  0  0
  125.1197  119.1161   89.3798 H   0  0  0  0  0  0  0  0  0  0  0  0
  124.9972  120.9082   89.3798 H   0  0  0  0  0  0  0  0  0  0  0  0
  124.8609  121.8537   87.7414 H   0  0  0  0  0  0  0  0  0  0  0  0
  125.0433  123.0082   85.5432 H   0  0  0  0  0  0  0  0  0  0  0  0
  123.6800  126.8229   83.0382 H   0  0  0  0  0  0  0  0  0  0  0  0
  124.1298  125.2863   82.2237 H   0  0  0  0  0  0  0  0  0  0  0  0
  122.4196  125.8357   82.2237 H   0  0  0  0  0  0  0  0  0  0  0  0
  120.1159  123.9841   85.0517 H   0  0  0  0  0  0  0  0  0  0  0  0
  120.5548  121.7772   87.3426 H   0  0  0  0  0  0  0  0  0  0  0  0
  1  2  1  0
  2  3  1  0
  3  4  2  0
  3  5  1  0
  5  6  2  0
  6  7  1  0
  7  8  2  0
  8  9  1  0
  9 10  2  0
  9 11  1  0
 11 12  1  0
  8 13  1  0
 13 14  1  0
 14 15  1  0
 15 16  2  0
 15 17  1  0
 17 18  1  0
 17 19  1  0
 17 20  1  0
 13 21  2  0
 21  5  1  0
  1 22  1  0
  1 23  1  0
  1 24  1  0
  6 25  1  0
  7 26  1  0
 12 27  1  0
 12 28  1  0
 12 29  1  0
 14 30  1  0
 21 31  1  0
M  END
>  <loss>  (17) 
0.7663637399673462

>  <score>  (17) 
1.5005648136138916

$$$$
HSZVUJORSGYUKY-UHFFFAOYSA-N
     RDKit          3D

 31 31  0  0  0  0  0  0  0  0999 V2000
  126.7009  122.1131   85.8083 C   0  0  0  0  0  0  0  0  0  0  0  0
  125.5852  122.7871   86.3921 O   0  0  0  0  0  0  0  0  0  0  0  0
  124.3840  122.3956   85.9042 C   0  0  0  0  0  0  0  0  0  0  0  0
  124.0649  122.3670   84.7260 O   0  0  0  0  0  0  0  0  0  0  0  0
  123.4684  121.9913   87.0081 C   0  0  0  0  0  0  0  0  0  0  0  0
  122.2934  122.7239   87.1825 C   0  0  0  0  0  0  0  0  0  0  0  0
  121.4048  122.3841   88.2016 C   0  0  0  0  0  0  0  0  0  0  0  0
  121.6709  121.3060   89.0677 C   0  0  0  0  0  0  0  0  0  0  0  0
  120.6225  121.0640   90.1123 C   0  0  0  0  0  0  0  0  0  0  0  0
  119.7457  120.2215   89.9973 O   0  0  0  0  0  0  0  0  0  0  0  0
  120.7691  121.8863   91.1841 O   0  0  0  0  0  0  0  0  0  0  0  0
  119.5316  122.2751   91.7913 C   0  0  0  0  0  0  0  0  0  0  0  0
  122.8620  120.5541   88.9001 C   0  0  0  0  0  0  0  0  0  0  0  0
  123.1386  119.4669   89.7669 N   0  0  0  0  0  0  0  0  0  0  0  0
  123.2429  118.1012   89.4860 C   0  0  0  0  0  0  0  0  0  0  0  0
  123.0068  117.6104   88.3827 O   0  0  0  0  0  0  0  0  0  0  0  0
  123.6890  117.2492   90.7074 C   0  0  0  0  0  0  0  0  0  0  0  0
  123.9283  118.3445   92.1012 Cl  0  0  0  0  0  0  0  0  0  0  0  0
  125.1951  116.3691   90.3715 Cl  0  0  0  0  0  0  0  0  0  0  0  0
  122.3841  116.0875   91.0909 Cl  0  0  0  0  0  0  0  0  0  0  0  0
  123.7444  120.9134   87.8663 C   0  0  0  0  0  0  0  0  0  0  0  0
  127.3502  121.7209   86.6049 H   0  0  0  0  0  0  0  0  0  0  0  0
  126.3415  121.2809   85.1852 H   0  0  0  0  0  0  0  0  0  0  0  0
  127.2703  122.8185   85.1852 H   0  0  0  0  0  0  0  0  0  0  0  0
  122.0685  123.5695   86.5158 H   0  0  0  0  0  0  0  0  0  0  0  0
  120.4813  122.9675   88.3313 H   0  0  0  0  0  0  0  0  0  0  0  0
  119.6342  122.2428   92.8861 H   0  0  0  0  0  0  0  0  0  0  0  0
  119.2742  123.2973   91.4771 H   0  0  0  0  0  0  0  0  0  0  0  0
  118.7358  121.5836   91.4771 H   0  0  0  0  0  0  0  0  0  0  0  0
  123.2852  119.7220   90.7540 H   0  0  0  0  0  0  0  0  0  0  0  0
  124.6714  120.3380   87.7261 H   0  0  0  0  0  0  0  0  0  0  0  0
  1  2  1  0
  2  3  1  0
  3  4  2  0
  3  5  1  0
  5  6  2  0
  6  7  1  0
  7  8  2  0
  8  9  1  0
  9 10  2  0
  9 11  1  0
 11 12  1  0
  8 13  1  0
 13 14  1  0
 14 15  1  0
 15 16  2  0
 15 17  1  0
 17 18  1  0
 17 19  1  0
 17 20  1  0
 13 21  2  0
 21  5  1  0
  1 22  1  0
  1 23  1  0
  1 24  1  0
  6 25  1  0
  7 26  1  0
 12 27  1  0
 12 28  1  0
 12 29  1  0
 14 30  1  0
 21 31  1  0
M  END
>  <loss>  (18) 
0.8361673355102539

>  <score>  (18) 
-13.166374206542969

$$$$
HSZVUJORSGYUKY-UHFFFAOYSA-N
     RDKit          3D

 31 31  0  0  0  0  0  0  0  0999 V2000
  126.3954  120.6187   90.4621 C   0  0  0  0  0  0  0  0  0  0  0  0
  125.2116  120.3036   89.7266 O   0  0  0  0  0  0  0  0  0  0  0  0
  124.1504  121.0931   90.0299 C   0  0  0  0  0  0  0  0  0  0  0  0
  123.7354  121.3264   91.1529 O   0  0  0  0  0  0  0  0  0  0  0  0
  123.5422  121.6518   88.7887 C   0  0  0  0  0  0  0  0  0  0  0  0
  124.2318  122.5404   87.9591 C   0  0  0  0  0  0  0  0  0  0  0  0
  123.6216  123.0377   86.8067 C   0  0  0  0  0  0  0  0  0  0  0  0
  122.3122  122.6542   86.4659 C   0  0  0  0  0  0  0  0  0  0  0  0
  121.6762  123.1991   85.2258 C   0  0  0  0  0  0  0  0  0  0  0  0
  120.9406  124.1769   85.2305 O   0  0  0  0  0  0  0  0  0  0  0  0
  122.0201  122.4779   84.1314 O   0  0  0  0  0  0  0  0  0  0  0  0
  122.5414  123.2595   83.0541 C   0  0  0  0  0  0  0  0  0  0  0  0
  121.6015  121.7528   87.2997 C   0  0  0  0  0  0  0  0  0  0  0  0
  120.2803  121.3758   86.9413 N   0  0  0  0  0  0  0  0  0  0  0  0
  119.7399  120.1017   86.7527 C   0  0  0  0  0  0  0  0  0  0  0  0
  120.4227  119.0870   86.6154 O   0  0  0  0  0  0  0  0  0  0  0  0
  118.1862  120.0782   86.7312 C   0  0  0  0  0  0  0  0  0  0  0  0
  117.6399  120.1846   85.0329 Cl  0  0  0  0  0  0  0  0  0  0  0  0
  117.5531  118.5845   87.4636 Cl  0  0  0  0  0  0  0  0  0  0  0  0
  117.5840  121.4899   87.6471 Cl  0  0  0  0  0  0  0  0  0  0  0  0
  122.2332  121.2645   88.4536 C   0  0  0  0  0  0  0  0  0  0  0  0
  126.1833  120.5622   91.5400 H   0  0  0  0  0  0  0  0  0  0  0  0
  127.1881  119.9003   90.2062 H   0  0  0  0  0  0  0  0  0  0  0  0
  126.7261  121.6361   90.2062 H   0  0  0  0  0  0  0  0  0  0  0  0
  125.2565  122.8480   88.2148 H   0  0  0  0  0  0  0  0  0  0  0  0
  124.1704  123.7367   86.1585 H   0  0  0  0  0  0  0  0  0  0  0  0
  123.1089  124.1102   83.4594 H   0  0  0  0  0  0  0  0  0  0  0  0
  123.2055  122.6365   82.4369 H   0  0  0  0  0  0  0  0  0  0  0  0
  121.7111  123.6333   82.4369 H   0  0  0  0  0  0  0  0  0  0  0  0
  119.6238  122.1567   86.7995 H   0  0  0  0  0  0  0  0  0  0  0  0
  121.6934  120.5650   89.1089 H   0  0  0  0  0  0  0  0  0  0  0  0
  1  2  1  0
  2  3  1  0
  3  4  2  0
  3  5  1  0
  5  6  2  0
  6  7  1  0
  7  8  2  0
  8  9  1  0
  9 10  2  0
  9 11  1  0
 11 12  1  0
  8 13  1  0
 13 14  1  0
 14 15  1  0
 15 16  2  0
 15 17  1  0
 17 18  1  0
 17 19  1  0
 17 20  1  0
 13 21  2  0
 21  5  1  0
  1 22  1  0
  1 23  1  0
  1 24  1  0
  6 25  1  0
  7 26  1  0
 12 27  1  0
 12 28  1  0
 12 29  1  0
 14 30  1  0
 21 31  1  0
M  END
>  <loss>  (19) 
0.8538768887519836

>  <score>  (19) 
-18.356008529663086

$$$$
HSZVUJORSGYUKY-UHFFFAOYSA-N
     RDKit          3D

 31 31  0  0  0  0  0  0  0  0999 V2000
  126.3376  120.6080   90.4162 C   0  0  0  0  0  0  0  0  0  0  0  0
  125.1290  120.2651   89.7358 O   0  0  0  0  0  0  0  0  0  0  0  0
  124.0847  121.0813   90.0266 C   0  0  0  0  0  0  0  0  0  0  0  0
  123.6669  121.3309   91.1450 O   0  0  0  0  0  0  0  0  0  0  0  0
  123.4993  121.6472   88.7776 C   0  0  0  0  0  0  0  0  0  0  0  0
  124.2192  122.5075   87.9439 C   0  0  0  0  0  0  0  0  0  0  0  0
  123.6296  123.0129   86.7843 C   0  0  0  0  0  0  0  0  0  0  0  0
  122.3109  122.6659   86.4403 C   0  0  0  0  0  0  0  0  0  0  0  0
  121.6973  123.2188   85.1925 C   0  0  0  0  0  0  0  0  0  0  0  0
  120.9663  124.2000   85.1894 O   0  0  0  0  0  0  0  0  0  0  0  0
  122.0553  122.5003   84.1007 O   0  0  0  0  0  0  0  0  0  0  0  0
  122.6903  123.2682   83.0759 C   0  0  0  0  0  0  0  0  0  0  0  0
  121.5695  121.7935   87.2783 C   0  0  0  0  0  0  0  0  0  0  0  0
  120.2392  121.4531   86.9166 N   0  0  0  0  0  0  0  0  0  0  0  0
  119.7020  120.2105   86.5728 C   0  0  0  0  0  0  0  0  0  0  0  0
  120.3873  119.2216   86.3139 O   0  0  0  0  0  0  0  0  0  0  0  0
  118.1484  120.1867   86.5459 C   0  0  0  0  0  0  0  0  0  0  0  0
  117.5461  121.7712   87.1125 Cl  0  0  0  0  0  0  0  0  0  0  0  0
  117.5808  118.8980   87.6466 Cl  0  0  0  0  0  0  0  0  0  0  0  0
  117.5361  119.8741   84.9040 Cl  0  0  0  0  0  0  0  0  0  0  0  0
  122.1808  121.2965   88.4395 C   0  0  0  0  0  0  0  0  0  0  0  0
  126.1727  120.5612   91.5028 H   0  0  0  0  0  0  0  0  0  0  0  0
  127.1306  119.8994   90.1349 H   0  0  0  0  0  0  0  0  0  0  0  0
  126.6402  121.6275   90.1349 H   0  0  0  0  0  0  0  0  0  0  0  0
  125.2515  122.7865   88.2020 H   0  0  0  0  0  0  0  0  0  0  0  0
  124.2021  123.6894   86.1328 H   0  0  0  0  0  0  0  0  0  0  0  0
  123.3271  124.0381   83.5359 H   0  0  0  0  0  0  0  0  0  0  0  0
  123.3084  122.6062   82.4515 H   0  0  0  0  0  0  0  0  0  0  0  0
  121.9242  123.7511   82.4515 H   0  0  0  0  0  0  0  0  0  0  0  0
  119.5723  122.2380   86.9063 H   0  0  0  0  0  0  0  0  0  0  0  0
  121.6172  120.6192   89.0980 H   0  0  0  0  0  0  0  0  0  0  0  0
  1  2  1  0
  2  3  1  0
  3  4  2  0
  3  5  1  0
  5  6  2  0
  6  7  1  0
  7  8  2  0
  8  9  1  0
  9 10  2  0
  9 11  1  0
 11 12  1  0
  8 13  1  0
 13 14  1  0
 14 15  1  0
 15 16  2  0
 15 17  1  0
 17 18  1  0
 17 19  1  0
 17 20  1  0
 13 21  2  0
 21  5  1  0
  1 22  1  0
  1 23  1  0
  1 24  1  0
  6 25  1  0
  7 26  1  0
 12 27  1  0
 12 28  1  0
 12 29  1  0
 14 30  1  0
 21 31  1  0
M  END
>  <loss>  (20) 
0.8543091416358948

>  <score>  (20) 
-21.388845443725586

$$$$
HSZVUJORSGYUKY-UHFFFAOYSA-N
     RDKit          3D

 31 31  0  0  0  0  0  0  0  0999 V2000
  126.1622  121.2578   91.1700 C   0  0  0  0  0  0  0  0  0  0  0  0
  125.0067  121.3390   90.3344 O   0  0  0  0  0  0  0  0  0  0  0  0
  125.2262  120.9758   89.0483 C   0  0  0  0  0  0  0  0  0  0  0  0
  126.1443  120.2772   88.6487 O   0  0  0  0  0  0  0  0  0  0  0  0
  124.1835  121.5465   88.1498 C   0  0  0  0  0  0  0  0  0  0  0  0
  124.5686  122.5473   87.2566 C   0  0  0  0  0  0  0  0  0  0  0  0
  123.6290  123.1124   86.3955 C   0  0  0  0  0  0  0  0  0  0  0  0
  122.2856  122.6900   86.4082 C   0  0  0  0  0  0  0  0  0  0  0  0
  121.3960  123.3908   85.4253 C   0  0  0  0  0  0  0  0  0  0  0  0
  120.7568  124.3949   85.6993 O   0  0  0  0  0  0  0  0  0  0  0  0
  121.3910  122.7780   84.2125 O   0  0  0  0  0  0  0  0  0  0  0  0
  121.9381  123.5759   83.1564 C   0  0  0  0  0  0  0  0  0  0  0  0
  121.8825  121.6735   87.3117 C   0  0  0  0  0  0  0  0  0  0  0  0
  120.5323  121.2415   87.3320 N   0  0  0  0  0  0  0  0  0  0  0  0
  120.0048  119.9476   87.2834 C   0  0  0  0  0  0  0  0  0  0  0  0
  120.6858  118.9382   87.1060 O   0  0  0  0  0  0  0  0  0  0  0  0
  118.4631  119.8988   87.4759 C   0  0  0  0  0  0  0  0  0  0  0  0
  118.0286  120.9920   88.8235 Cl  0  0  0  0  0  0  0  0  0  0  0  0
  117.9040  118.2517   87.8366 Cl  0  0  0  0  0  0  0  0  0  0  0  0
  117.6888  120.4832   85.9730 Cl  0  0  0  0  0  0  0  0  0  0  0  0
  122.8457  121.1170   88.1714 C   0  0  0  0  0  0  0  0  0  0  0  0
  125.8536  121.2795   92.2256 H   0  0  0  0  0  0  0  0  0  0  0  0
  126.6985  120.3197   90.9640 H   0  0  0  0  0  0  0  0  0  0  0  0
  126.8244  122.1116   90.9640 H   0  0  0  0  0  0  0  0  0  0  0  0
  125.6135  122.8902   87.2321 H   0  0  0  0  0  0  0  0  0  0  0  0
  123.9420  123.9006   85.6950 H   0  0  0  0  0  0  0  0  0  0  0  0
  122.5105  124.4109   83.5866 H   0  0  0  0  0  0  0  0  0  0  0  0
  122.6027  122.9570   82.5357 H   0  0  0  0  0  0  0  0  0  0  0  0
  121.1212  123.9727   82.5357 H   0  0  0  0  0  0  0  0  0  0  0  0
  119.8335  121.9959   87.3917 H   0  0  0  0  0  0  0  0  0  0  0  0
  122.5455  120.3280   88.8766 H   0  0  0  0  0  0  0  0  0  0  0  0
  1  2  1  0
  2  3  1  0
  3  4  2  0
  3  5  1  0
  5  6  2  0
  6  7  1  0
  7  8  2  0
  8  9  1  0
  9 10  2  0
  9 11  1  0
 11 12  1  0
  8 13  1  0
 13 14  1  0
 14 15  1  0
 15 16  2  0
 15 17  1  0
 17 18  1  0
 17 19  1  0
 17 20  1  0
 13 21  2  0
 21  5  1  0
  1 22  1  0
  1 23  1  0
  1 24  1  0
  6 25  1  0
  7 26  1  0
 12 27  1  0
 12 28  1  0
 12 29  1  0
 14 30  1  0
 21 31  1  0
M  END
>  <loss>  (21) 
0.8633904457092285

>  <score>  (21) 
-22.627531051635742

$$$$
HSZVUJORSGYUKY-UHFFFAOYSA-N
     RDKit          3D

 31 31  0  0  0  0  0  0  0  0999 V2000
  126.2268  122.0380   90.9213 C   0  0  0  0  0  0  0  0  0  0  0  0
  124.9117  121.5963   90.5822 O   0  0  0  0  0  0  0  0  0  0  0  0
  124.8561  120.8170   89.4762 C   0  0  0  0  0  0  0  0  0  0  0  0
  125.4201  119.7443   89.3267 O   0  0  0  0  0  0  0  0  0  0  0  0
  123.9991  121.4404   88.4288 C   0  0  0  0  0  0  0  0  0  0  0  0
  124.6198  122.2565   87.4790 C   0  0  0  0  0  0  0  0  0  0  0  0
  123.8655  122.8654   86.4760 C   0  0  0  0  0  0  0  0  0  0  0  0
  122.4754  122.6669   86.4073 C   0  0  0  0  0  0  0  0  0  0  0  0
  121.6815  123.3277   85.3248 C   0  0  0  0  0  0  0  0  0  0  0  0
  120.8787  124.2250   85.5435 O   0  0  0  0  0  0  0  0  0  0  0  0
  121.9691  122.8075   84.1073 O   0  0  0  0  0  0  0  0  0  0  0  0
  121.5800  123.6349   83.0086 C   0  0  0  0  0  0  0  0  0  0  0  0
  121.8325  121.8405   87.3656 C   0  0  0  0  0  0  0  0  0  0  0  0
  120.4274  121.6500   87.2826 N   0  0  0  0  0  0  0  0  0  0  0  0
  119.6998  120.4745   87.0834 C   0  0  0  0  0  0  0  0  0  0  0  0
  120.2047  119.4192   86.6995 O   0  0  0  0  0  0  0  0  0  0  0  0
  118.1830  120.6174   87.3920 C   0  0  0  0  0  0  0  0  0  0  0  0
  117.1942  120.1327   85.9931 Cl  0  0  0  0  0  0  0  0  0  0  0  0
  117.7869  119.5757   88.7885 Cl  0  0  0  0  0  0  0  0  0  0  0  0
  117.8440  122.3245   87.7958 Cl  0  0  0  0  0  0  0  0  0  0  0  0
  122.6104  121.2375   88.3665 C   0  0  0  0  0  0  0  0  0  0  0  0
  126.3311  122.0730   92.0158 H   0  0  0  0  0  0  0  0  0  0  0  0
  126.9671  121.3392   90.5046 H   0  0  0  0  0  0  0  0  0  0  0  0
  126.3952  123.0420   90.5046 H   0  0  0  0  0  0  0  0  0  0  0  0
  125.7068  122.4192   87.5226 H   0  0  0  0  0  0  0  0  0  0  0  0
  124.3624  123.5061   85.7326 H   0  0  0  0  0  0  0  0  0  0  0  0
  121.1409  124.5685   83.3902 H   0  0  0  0  0  0  0  0  0  0  0  0
  122.4625  123.8687   82.3951 H   0  0  0  0  0  0  0  0  0  0  0  0
  120.8371  123.1042   82.3951 H   0  0  0  0  0  0  0  0  0  0  0  0
  119.8617  122.5047   87.3842 H   0  0  0  0  0  0  0  0  0  0  0  0
  122.1241  120.5948   89.1151 H   0  0  0  0  0  0  0  0  0  0  0  0
  1  2  1  0
  2  3  1  0
  3  4  2  0
  3  5  1  0
  5  6  2  0
  6  7  1  0
  7  8  2  0
  8  9  1  0
  9 10  2  0
  9 11  1  0
 11 12  1  0
  8 13  1  0
 13 14  1  0
 14 15  1  0
 15 16  2  0
 15 17  1  0
 17 18  1  0
 17 19  1  0
 17 20  1  0
 13 21  2  0
 21  5  1  0
  1 22  1  0
  1 23  1  0
  1 24  1  0
  6 25  1  0
  7 26  1  0
 12 27  1  0
 12 28  1  0
 12 29  1  0
 14 30  1  0
 21 31  1  0
M  END
>  <loss>  (22) 
0.8691754937171936

>  <score>  (22) 
-23.029314041137695

$$$$
HSZVUJORSGYUKY-UHFFFAOYSA-N
     RDKit          3D

 31 31  0  0  0  0  0  0  0  0999 V2000
  126.7684  122.2158   85.7522 C   0  0  0  0  0  0  0  0  0  0  0  0
  125.6466  122.7241   86.4755 O   0  0  0  0  0  0  0  0  0  0  0  0
  124.4465  122.3654   85.9606 C   0  0  0  0  0  0  0  0  0  0  0  0
  124.1507  122.3531   84.7760 O   0  0  0  0  0  0  0  0  0  0  0  0
  123.4993  121.9753   87.0427 C   0  0  0  0  0  0  0  0  0  0  0  0
  122.3527  122.7515   87.2172 C   0  0  0  0  0  0  0  0  0  0  0  0
  121.4363  122.4266   88.2163 C   0  0  0  0  0  0  0  0  0  0  0  0
  121.6457  121.3200   89.0619 C   0  0  0  0  0  0  0  0  0  0  0  0
  120.5733  121.0988   90.0865 C   0  0  0  0  0  0  0  0  0  0  0  0
  119.6413  120.3264   89.9231 O   0  0  0  0  0  0  0  0  0  0  0  0
  120.7664  121.8532   91.2002 O   0  0  0  0  0  0  0  0  0  0  0  0
  119.5692  122.4495   91.7125 C   0  0  0  0  0  0  0  0  0  0  0  0
  122.8075  120.5238   88.8940 C   0  0  0  0  0  0  0  0  0  0  0  0
  123.0271  119.4077   89.7403 N   0  0  0  0  0  0  0  0  0  0  0  0
  123.0443  118.0429   89.4369 C   0  0  0  0  0  0  0  0  0  0  0  0
  122.8200  117.5893   88.3154 O   0  0  0  0  0  0  0  0  0  0  0  0
  123.3763  117.1404   90.6583 C   0  0  0  0  0  0  0  0  0  0  0  0
  123.9400  118.1864   91.9953 Cl  0  0  0  0  0  0  0  0  0  0  0  0
  124.6300  115.9456   90.2629 Cl  0  0  0  0  0  0  0  0  0  0  0  0
  121.8794  116.3002   91.1613 Cl  0  0  0  0  0  0  0  0  0  0  0  0
  123.7187  120.8688   87.8805 C   0  0  0  0  0  0  0  0  0  0  0  0
  127.5348  121.8685   86.4607 H   0  0  0  0  0  0  0  0  0  0  0  0
  126.4465  121.3756   85.1194 H   0  0  0  0  0  0  0  0  0  0  0  0
  127.1879  123.0118   85.1194 H   0  0  0  0  0  0  0  0  0  0  0  0
  122.1720  123.6197   86.5663 H   0  0  0  0  0  0  0  0  0  0  0  0
  120.5355  123.0443   88.3463 H   0  0  0  0  0  0  0  0  0  0  0  0
  119.5948  122.4367   92.8121 H   0  0  0  0  0  0  0  0  0  0  0  0
  119.4971  123.4887   91.3594 H   0  0  0  0  0  0  0  0  0  0  0  0
  118.6963  121.8808   91.3594 H   0  0  0  0  0  0  0  0  0  0  0  0
  123.2004  119.6373   90.7293 H   0  0  0  0  0  0  0  0  0  0  0  0
  124.6235  120.2591   87.7403 H   0  0  0  0  0  0  0  0  0  0  0  0
  1  2  1  0
  2  3  1  0
  3  4  2  0
  3  5  1  0
  5  6  2  0
  6  7  1  0
  7  8  2  0
  8  9  1  0
  9 10  2  0
  9 11  1  0
 11 12  1  0
  8 13  1  0
 13 14  1  0
 14 15  1  0
 15 16  2  0
 15 17  1  0
 17 18  1  0
 17 19  1  0
 17 20  1  0
 13 21  2  0
 21  5  1  0
  1 22  1  0
  1 23  1  0
  1 24  1  0
  6 25  1  0
  7 26  1  0
 12 27  1  0
 12 28  1  0
 12 29  1  0
 14 30  1  0
 21 31  1  0
M  END
>  <loss>  (23) 
0.8342856764793396

>  <score>  (23) 
-26.74556541442871

$$$$
HSZVUJORSGYUKY-UHFFFAOYSA-N
     RDKit          3D

 31 31  0  0  0  0  0  0  0  0999 V2000
  126.7443  122.3936   85.9083 C   0  0  0  0  0  0  0  0  0  0  0  0
  125.5309  122.9780   86.3838 O   0  0  0  0  0  0  0  0  0  0  0  0
  124.4082  122.3934   85.9021 C   0  0  0  0  0  0  0  0  0  0  0  0
  124.1456  122.2105   84.7239 O   0  0  0  0  0  0  0  0  0  0  0  0
  123.5024  121.9867   87.0133 C   0  0  0  0  0  0  0  0  0  0  0  0
  122.3509  122.7456   87.2270 C   0  0  0  0  0  0  0  0  0  0  0  0
  121.4722  122.4047   88.2544 C   0  0  0  0  0  0  0  0  0  0  0  0
  121.7251  121.2993   89.0896 C   0  0  0  0  0  0  0  0  0  0  0  0
  120.6899  121.0598   90.1478 C   0  0  0  0  0  0  0  0  0  0  0  0
  119.8077  120.2217   90.0427 O   0  0  0  0  0  0  0  0  0  0  0  0
  120.8549  121.8789   91.2194 O   0  0  0  0  0  0  0  0  0  0  0  0
  119.6375  122.4639   91.6960 C   0  0  0  0  0  0  0  0  0  0  0  0
  122.8924  120.5207   88.8818 C   0  0  0  0  0  0  0  0  0  0  0  0
  123.1557  119.4059   89.7173 N   0  0  0  0  0  0  0  0  0  0  0  0
  123.1416  118.0399   89.4194 C   0  0  0  0  0  0  0  0  0  0  0  0
  122.8344  117.5836   88.3188 O   0  0  0  0  0  0  0  0  0  0  0  0
  123.5537  117.1397   90.6178 C   0  0  0  0  0  0  0  0  0  0  0  0
  124.3657  118.1639   91.8389 Cl  0  0  0  0  0  0  0  0  0  0  0  0
  124.6468  115.8360   90.1068 Cl  0  0  0  0  0  0  0  0  0  0  0  0
  122.0710  116.4386   91.3319 Cl  0  0  0  0  0  0  0  0  0  0  0  0
  123.7651  120.8815   87.8403 C   0  0  0  0  0  0  0  0  0  0  0  0
  127.3668  122.0937   86.7641 H   0  0  0  0  0  0  0  0  0  0  0  0
  126.5105  121.5093   85.2972 H   0  0  0  0  0  0  0  0  0  0  0  0
  127.2900  123.1276   85.2972 H   0  0  0  0  0  0  0  0  0  0  0  0
  122.1364  123.6126   86.5849 H   0  0  0  0  0  0  0  0  0  0  0  0
  120.5671  123.0088   88.4153 H   0  0  0  0  0  0  0  0  0  0  0  0
  119.6369  122.4642   92.7960 H   0  0  0  0  0  0  0  0  0  0  0  0
  119.5593  123.4980   91.3290 H   0  0  0  0  0  0  0  0  0  0  0  0
  118.7813  121.8789   91.3290 H   0  0  0  0  0  0  0  0  0  0  0  0
  123.3937  119.6377   90.6922 H   0  0  0  0  0  0  0  0  0  0  0  0
  124.6737  120.2856   87.6691 H   0  0  0  0  0  0  0  0  0  0  0  0
  1  2  1  0
  2  3  1  0
  3  4  2  0
  3  5  1  0
  5  6  2  0
  6  7  1  0
  7  8  2  0
  8  9  1  0
  9 10  2  0
  9 11  1  0
 11 12  1  0
  8 13  1  0
 13 14  1  0
 14 15  1  0
 15 16  2  0
 15 17  1  0
 17 18  1  0
 17 19  1  0
 17 20  1  0
 13 21  2  0
 21  5  1  0
  1 22  1  0
  1 23  1  0
  1 24  1  0
  6 25  1  0
  7 26  1  0
 12 27  1  0
 12 28  1  0
 12 29  1  0
 14 30  1  0
 21 31  1  0
M  END
>  <loss>  (24) 
0.8318584561347961

>  <score>  (24) 
-28.70755386352539

$$$$
HSZVUJORSGYUKY-UHFFFAOYSA-N
     RDKit          3D

 31 31  0  0  0  0  0  0  0  0999 V2000
  126.4106  120.8176   90.4732 C   0  0  0  0  0  0  0  0  0  0  0  0
  125.2557  120.3620   89.7659 O   0  0  0  0  0  0  0  0  0  0  0  0
  124.1281  121.0627   90.0467 C   0  0  0  0  0  0  0  0  0  0  0  0
  123.6491  121.2245   91.1567 O   0  0  0  0  0  0  0  0  0  0  0  0
  123.5353  121.6224   88.7984 C   0  0  0  0  0  0  0  0  0  0  0  0
  124.2562  122.4642   87.9470 C   0  0  0  0  0  0  0  0  0  0  0  0
  123.6595  122.9644   86.7888 C   0  0  0  0  0  0  0  0  0  0  0  0
  122.3325  122.6306   86.4639 C   0  0  0  0  0  0  0  0  0  0  0  0
  121.7114  123.1777   85.2173 C   0  0  0  0  0  0  0  0  0  0  0  0
  120.9878  124.1644   85.2128 O   0  0  0  0  0  0  0  0  0  0  0  0
  122.0537  122.4475   84.1283 O   0  0  0  0  0  0  0  0  0  0  0  0
  122.5836  123.2190   83.0479 C   0  0  0  0  0  0  0  0  0  0  0  0
  121.5900  121.7770   87.3201 C   0  0  0  0  0  0  0  0  0  0  0  0
  120.2514  121.4497   86.9776 N   0  0  0  0  0  0  0  0  0  0  0  0
  119.6738  120.1995   86.7452 C   0  0  0  0  0  0  0  0  0  0  0  0
  120.3253  119.1645   86.6074 O   0  0  0  0  0  0  0  0  0  0  0  0
  118.1216  120.2309   86.6754 C   0  0  0  0  0  0  0  0  0  0  0  0
  117.6109  121.8488   86.1135 Cl  0  0  0  0  0  0  0  0  0  0  0  0
  117.5802  118.9897   85.5090 Cl  0  0  0  0  0  0  0  0  0  0  0  0
  117.3972  119.9020   88.2676 Cl  0  0  0  0  0  0  0  0  0  0  0  0
  122.2086  121.2849   88.4795 C   0  0  0  0  0  0  0  0  0  0  0  0
  126.2294  120.7462   91.5558 H   0  0  0  0  0  0  0  0  0  0  0  0
  127.2753  120.1933   90.2041 H   0  0  0  0  0  0  0  0  0  0  0  0
  126.6161  121.8642   90.2041 H   0  0  0  0  0  0  0  0  0  0  0  0
  125.2949  122.7328   88.1900 H   0  0  0  0  0  0  0  0  0  0  0  0
  124.2328  123.6265   86.1232 H   0  0  0  0  0  0  0  0  0  0  0  0
  123.1633  124.0630   83.4498 H   0  0  0  0  0  0  0  0  0  0  0  0
  123.2380  122.5853   82.4313 H   0  0  0  0  0  0  0  0  0  0  0  0
  121.7573  123.6023   82.4313 H   0  0  0  0  0  0  0  0  0  0  0  0
  119.6123  122.2524   86.8873 H   0  0  0  0  0  0  0  0  0  0  0  0
  121.6442  120.6221   89.1519 H   0  0  0  0  0  0  0  0  0  0  0  0
  1  2  1  0
  2  3  1  0
  3  4  2  0
  3  5  1  0
  5  6  2  0
  6  7  1  0
  7  8  2  0
  8  9  1  0
  9 10  2  0
  9 11  1  0
 11 12  1  0
  8 13  1  0
 13 14  1  0
 14 15  1  0
 15 16  2  0
 15 17  1  0
 17 18  1  0
 17 19  1  0
 17 20  1  0
 13 21  2  0
 21  5  1  0
  1 22  1  0
  1 23  1  0
  1 24  1  0
  6 25  1  0
  7 26  1  0
 12 27  1  0
 12 28  1  0
 12 29  1  0
 14 30  1  0
 21 31  1  0
M  END
>  <loss>  (25) 
0.8552595376968384

>  <score>  (25) 
-31.700475692749023

$$$$
