HVXKWUADFCSFOS-UHFFFAOYSA-N
     RDKit          3D

 42 42  0  0  0  0  0  0  0  0999 V2000
  120.4955  123.2349   80.7665 C   0  0  0  0  0  0  0  0  0  0  0  0
  119.8811  122.7226   82.0622 C   0  0  0  0  0  0  0  0  0  0  0  0
  119.6976  123.7729   83.0691 N   0  0  0  0  0  0  0  0  0  0  0  0
  118.4277  123.6803   83.7973 C   0  0  0  0  0  0  0  0  0  0  0  0
  117.4394  122.6059   83.3516 C   0  0  0  0  0  0  0  0  0  0  0  0
  120.8774  124.0627   83.9045 C   0  0  0  0  0  0  0  0  0  0  0  0
  121.7642  122.8449   84.2004 C   0  0  0  0  0  0  0  0  0  0  0  0
  122.4776  122.3475   83.3339 O   0  0  0  0  0  0  0  0  0  0  0  0
  121.6586  122.4120   85.5182 N   0  0  0  0  0  0  0  0  0  0  0  0
  122.7099  122.0993   86.4256 C   0  0  0  0  0  0  0  0  0  0  0  0
  124.0371  121.9293   86.0116 C   0  0  0  0  0  0  0  0  0  0  0  0
  125.0552  121.6249   86.9291 C   0  0  0  0  0  0  0  0  0  0  0  0
  126.3734  121.4458   86.5914 O   0  0  0  0  0  0  0  0  0  0  0  0
  126.7662  121.7624   85.2628 C   0  0  0  0  0  0  0  0  0  0  0  0
  124.7513  121.4909   88.2962 C   0  0  0  0  0  0  0  0  0  0  0  0
  125.8023  121.1931   89.1260 O   0  0  0  0  0  0  0  0  0  0  0  0
  125.7158  121.5982   90.4832 C   0  0  0  0  0  0  0  0  0  0  0  0
  123.4324  121.6493   88.7215 C   0  0  0  0  0  0  0  0  0  0  0  0
  122.4189  121.9506   87.7968 C   0  0  0  0  0  0  0  0  0  0  0  0
  121.0830  122.1022   88.2941 C   0  0  0  0  0  0  0  0  0  0  0  0
  119.9874  122.2379   88.6460 N   0  0  0  0  0  0  0  0  0  0  0  0
  121.3211  123.9235   80.9992 H   0  0  0  0  0  0  0  0  0  0  0  0
  120.8798  122.3859   80.1821 H   0  0  0  0  0  0  0  0  0  0  0  0
  119.7293  123.7654   80.1821 H   0  0  0  0  0  0  0  0  0  0  0  0
  118.8995  122.2821   81.8336 H   0  0  0  0  0  0  0  0  0  0  0  0
  120.5775  121.9831   82.4843 H   0  0  0  0  0  0  0  0  0  0  0  0
  118.6665  123.4909   84.8543 H   0  0  0  0  0  0  0  0  0  0  0  0
  117.9173  124.6335   83.5952 H   0  0  0  0  0  0  0  0  0  0  0  0
  116.9969  122.1250   84.2364 H   0  0  0  0  0  0  0  0  0  0  0  0
  116.6435  123.0674   82.7486 H   0  0  0  0  0  0  0  0  0  0  0  0
  117.9655  121.8512   82.7486 H   0  0  0  0  0  0  0  0  0  0  0  0
  121.4893  124.8150   83.3852 H   0  0  0  0  0  0  0  0  0  0  0  0
  120.4948  124.4135   84.8743 H   0  0  0  0  0  0  0  0  0  0  0  0
  120.7012  122.3045   85.8825 H   0  0  0  0  0  0  0  0  0  0  0  0
  124.2869  122.0366   84.9457 H   0  0  0  0  0  0  0  0  0  0  0  0
  127.6223  122.4525   85.2881 H   0  0  0  0  0  0  0  0  0  0  0  0
  127.0537  120.8406   84.7360 H   0  0  0  0  0  0  0  0  0  0  0  0
  125.9264  122.2391   84.7360 H   0  0  0  0  0  0  0  0  0  0  0  0
  125.9005  120.7328   91.1366 H   0  0  0  0  0  0  0  0  0  0  0  0
  126.4684  122.3753   90.6826 H   0  0  0  0  0  0  0  0  0  0  0  0
  124.7116  122.0005   90.6826 H   0  0  0  0  0  0  0  0  0  0  0  0
  123.1845  121.5376   89.7874 H   0  0  0  0  0  0  0  0  0  0  0  0
  1  2  1  0
  2  3  1  0
  3  4  1  0
  4  5  1  0
  3  6  1  0
  6  7  1  0
  7  8  2  0
  7  9  1  0
  9 10  1  0
 10 11  2  0
 11 12  1  0
 12 13  1  0
 13 14  1  0
 12 15  2  0
 15 16  1  0
 16 17  1  0
 15 18  1  0
 18 19  2  0
 19 20  1  0
 20 21  3  0
 19 10  1  0
  1 22  1  0
  1 23  1  0
  1 24  1  0
  2 25  1  0
  2 26  1  0
  4 27  1  0
  4 28  1  0
  5 29  1  0
  5 30  1  0
  5 31  1  0
  6 32  1  0
  6 33  1  0
  9 34  1  0
 11 35  1  0
 14 36  1  0
 14 37  1  0
 14 38  1  0
 17 39  1  0
 17 40  1  0
 17 41  1  0
 18 42  1  0
M  END
>  <loss>  (1) 
0.2659286856651306

>  <score>  (1) 
7.446927070617676

$$$$
HVXKWUADFCSFOS-UHFFFAOYSA-N
     RDKit          3D

 42 42  0  0  0  0  0  0  0  0999 V2000
  117.1452  122.2412   84.2298 C   0  0  0  0  0  0  0  0  0  0  0  0
  117.9919  123.3758   83.6665 C   0  0  0  0  0  0  0  0  0  0  0  0
  119.3630  122.9792   83.3158 N   0  0  0  0  0  0  0  0  0  0  0  0
  119.5732  122.9765   81.8583 C   0  0  0  0  0  0  0  0  0  0  0  0
  119.6585  124.3474   81.1924 C   0  0  0  0  0  0  0  0  0  0  0  0
  120.4121  123.7533   84.0092 C   0  0  0  0  0  0  0  0  0  0  0  0
  121.6579  122.8968   84.3054 C   0  0  0  0  0  0  0  0  0  0  0  0
  122.5896  122.8137   83.5100 O   0  0  0  0  0  0  0  0  0  0  0  0
  121.6005  122.2838   85.5534 N   0  0  0  0  0  0  0  0  0  0  0  0
  122.6768  122.0081   86.4438 C   0  0  0  0  0  0  0  0  0  0  0  0
  123.9913  121.8110   86.0016 C   0  0  0  0  0  0  0  0  0  0  0  0
  125.0331  121.5393   86.9023 C   0  0  0  0  0  0  0  0  0  0  0  0
  126.3412  121.3363   86.5347 O   0  0  0  0  0  0  0  0  0  0  0  0
  126.7837  121.9121   85.3122 C   0  0  0  0  0  0  0  0  0  0  0  0
  124.7656  121.4632   88.2814 C   0  0  0  0  0  0  0  0  0  0  0  0
  125.8387  121.1957   89.0925 O   0  0  0  0  0  0  0  0  0  0  0  0
  125.8176  121.7042   90.4186 C   0  0  0  0  0  0  0  0  0  0  0  0
  123.4610  121.6574   88.7356 C   0  0  0  0  0  0  0  0  0  0  0  0
  122.4241  121.9269   87.8279 C   0  0  0  0  0  0  0  0  0  0  0  0
  121.1038  122.1151   88.3545 C   0  0  0  0  0  0  0  0  0  0  0  0
  120.0165  122.2752   88.7269 N   0  0  0  0  0  0  0  0  0  0  0  0
  117.1707  122.2755   85.3290 H   0  0  0  0  0  0  0  0  0  0  0  0
  116.1070  122.3518   83.8835 H   0  0  0  0  0  0  0  0  0  0  0  0
  117.5466  121.2774   83.8835 H   0  0  0  0  0  0  0  0  0  0  0  0
  117.4996  123.7582   82.7602 H   0  0  0  0  0  0  0  0  0  0  0  0
  118.0722  124.1365   84.4570 H   0  0  0  0  0  0  0  0  0  0  0  0
  120.5142  122.4443   81.6550 H   0  0  0  0  0  0  0  0  0  0  0  0
  118.6819  122.4938   81.4309 H   0  0  0  0  0  0  0  0  0  0  0  0
  119.7070  125.1283   81.9656 H   0  0  0  0  0  0  0  0  0  0  0  0
  120.5613  124.3952   80.5658 H   0  0  0  0  0  0  0  0  0  0  0  0
  118.7685  124.5067   80.5658 H   0  0  0  0  0  0  0  0  0  0  0  0
  120.7068  124.6014   83.3736 H   0  0  0  0  0  0  0  0  0  0  0  0
  120.0013  124.1003   84.9687 H   0  0  0  0  0  0  0  0  0  0  0  0
  120.6648  121.9940   85.8720 H   0  0  0  0  0  0  0  0  0  0  0  0
  124.2119  121.8706   84.9256 H   0  0  0  0  0  0  0  0  0  0  0  0
  127.4412  122.7675   85.5266 H   0  0  0  0  0  0  0  0  0  0  0  0
  127.3383  121.1598   84.7322 H   0  0  0  0  0  0  0  0  0  0  0  0
  125.9140  122.2543   84.7322 H   0  0  0  0  0  0  0  0  0  0  0  0
  125.8523  120.8681   91.1325 H   0  0  0  0  0  0  0  0  0  0  0  0
  126.6896  122.3563   90.5751 H   0  0  0  0  0  0  0  0  0  0  0  0
  124.8948  122.2820   90.5751 H   0  0  0  0  0  0  0  0  0  0  0  0
  123.2431  121.5991   89.8123 H   0  0  0  0  0  0  0  0  0  0  0  0
  1  2  1  0
  2  3  1  0
  3  4  1  0
  4  5  1  0
  3  6  1  0
  6  7  1  0
  7  8  2  0
  7  9  1  0
  9 10  1  0
 10 11  2  0
 11 12  1  0
 12 13  1  0
 13 14  1  0
 12 15  2  0
 15 16  1  0
 16 17  1  0
 15 18  1  0
 18 19  2  0
 19 20  1  0
 20 21  3  0
 19 10  1  0
  1 22  1  0
  1 23  1  0
  1 24  1  0
  2 25  1  0
  2 26  1  0
  4 27  1  0
  4 28  1  0
  5 29  1  0
  5 30  1  0
  5 31  1  0
  6 32  1  0
  6 33  1  0
  9 34  1  0
 11 35  1  0
 14 36  1  0
 14 37  1  0
 14 38  1  0
 17 39  1  0
 17 40  1  0
 17 41  1  0
 18 42  1  0
M  END
>  <loss>  (2) 
0.27939334511756897

>  <score>  (2) 
7.500967979431152

$$$$
HVXKWUADFCSFOS-UHFFFAOYSA-N
     RDKit          3D

 42 42  0  0  0  0  0  0  0  0999 V2000
  117.1752  121.8623   83.6937 C   0  0  0  0  0  0  0  0  0  0  0  0
  118.1394  122.9287   84.1981 C   0  0  0  0  0  0  0  0  0  0  0  0
  119.3964  123.0028   83.4400 N   0  0  0  0  0  0  0  0  0  0  0  0
  119.1733  123.4643   82.0595 C   0  0  0  0  0  0  0  0  0  0  0  0
  119.1573  124.9769   81.8544 C   0  0  0  0  0  0  0  0  0  0  0  0
  120.4576  123.7860   84.1041 C   0  0  0  0  0  0  0  0  0  0  0  0
  121.7156  122.9383   84.3724 C   0  0  0  0  0  0  0  0  0  0  0  0
  122.6706  122.9359   83.6006 O   0  0  0  0  0  0  0  0  0  0  0  0
  121.6393  122.2327   85.5695 N   0  0  0  0  0  0  0  0  0  0  0  0
  122.6864  121.9653   86.4964 C   0  0  0  0  0  0  0  0  0  0  0  0
  124.0108  121.7448   86.0970 C   0  0  0  0  0  0  0  0  0  0  0  0
  125.0232  121.4818   87.0332 C   0  0  0  0  0  0  0  0  0  0  0  0
  126.3390  121.2571   86.7080 O   0  0  0  0  0  0  0  0  0  0  0  0
  126.8301  121.8240   85.5001 C   0  0  0  0  0  0  0  0  0  0  0  0
  124.7154  121.4389   88.4052 C   0  0  0  0  0  0  0  0  0  0  0  0
  125.7616  121.1780   89.2527 O   0  0  0  0  0  0  0  0  0  0  0  0
  125.8635  121.9437   90.4447 C   0  0  0  0  0  0  0  0  0  0  0  0
  123.4005  121.6568   88.8171 C   0  0  0  0  0  0  0  0  0  0  0  0
  122.3932  121.9172   87.8741 C   0  0  0  0  0  0  0  0  0  0  0  0
  121.0604  122.1309   88.3580 C   0  0  0  0  0  0  0  0  0  0  0  0
  119.9648  122.3105   88.6952 N   0  0  0  0  0  0  0  0  0  0  0  0
  116.7129  121.3510   84.5510 H   0  0  0  0  0  0  0  0  0  0  0  0
  116.3921  122.3354   83.0830 H   0  0  0  0  0  0  0  0  0  0  0  0
  117.7245  121.1306   83.0830 H   0  0  0  0  0  0  0  0  0  0  0  0
  117.6387  123.9061   84.1346 H   0  0  0  0  0  0  0  0  0  0  0  0
  118.4051  122.6561   85.2301 H   0  0  0  0  0  0  0  0  0  0  0  0
  119.9749  123.0479   81.4317 H   0  0  0  0  0  0  0  0  0  0  0  0
  118.1648  123.1176   81.7900 H   0  0  0  0  0  0  0  0  0  0  0  0
  119.1520  125.4796   82.8328 H   0  0  0  0  0  0  0  0  0  0  0  0
  120.0523  125.2801   81.2912 H   0  0  0  0  0  0  0  0  0  0  0  0
  118.2561  125.2611   81.2912 H   0  0  0  0  0  0  0  0  0  0  0  0
  120.7310  124.6334   83.4583 H   0  0  0  0  0  0  0  0  0  0  0  0
  120.0686  124.1341   85.0723 H   0  0  0  0  0  0  0  0  0  0  0  0
  120.7118  121.8581   85.8149 H   0  0  0  0  0  0  0  0  0  0  0  0
  124.2629  121.7783   85.0268 H   0  0  0  0  0  0  0  0  0  0  0  0
  127.5335  122.6362   85.7357 H   0  0  0  0  0  0  0  0  0  0  0  0
  127.3472  121.0492   84.9151 H   0  0  0  0  0  0  0  0  0  0  0  0
  125.9894  122.2253   84.9151 H   0  0  0  0  0  0  0  0  0  0  0  0
  125.7750  121.2786   91.3164 H   0  0  0  0  0  0  0  0  0  0  0  0
  126.8375  122.4542   90.4704 H   0  0  0  0  0  0  0  0  0  0  0  0
  125.0569  122.6911   90.4704 H   0  0  0  0  0  0  0  0  0  0  0  0
  123.1511  121.6244   89.8880 H   0  0  0  0  0  0  0  0  0  0  0  0
  1  2  1  0
  2  3  1  0
  3  4  1  0
  4  5  1  0
  3  6  1  0
  6  7  1  0
  7  8  2  0
  7  9  1  0
  9 10  1  0
 10 11  2  0
 11 12  1  0
 12 13  1  0
 13 14  1  0
 12 15  2  0
 15 16  1  0
 16 17  1  0
 15 18  1  0
 18 19  2  0
 19 20  1  0
 20 21  3  0
 19 10  1  0
  1 22  1  0
  1 23  1  0
  1 24  1  0
  2 25  1  0
  2 26  1  0
  4 27  1  0
  4 28  1  0
  5 29  1  0
  5 30  1  0
  5 31  1  0
  6 32  1  0
  6 33  1  0
  9 34  1  0
 11 35  1  0
 14 36  1  0
 14 37  1  0
 14 38  1  0
 17 39  1  0
 17 40  1  0
 17 41  1  0
 18 42  1  0
M  END
>  <loss>  (3) 
0.29236894845962524

>  <score>  (3) 
7.507192134857178

$$$$
HVXKWUADFCSFOS-UHFFFAOYSA-N
     RDKit          3D

 42 42  0  0  0  0  0  0  0  0999 V2000
  120.0655  123.9858   81.1176 C   0  0  0  0  0  0  0  0  0  0  0  0
  119.7430  123.0559   82.2796 C   0  0  0  0  0  0  0  0  0  0  0  0
  119.4356  123.7704   83.5229 N   0  0  0  0  0  0  0  0  0  0  0  0
  118.2567  123.2546   84.2268 C   0  0  0  0  0  0  0  0  0  0  0  0
  117.1396  122.6529   83.3783 C   0  0  0  0  0  0  0  0  0  0  0  0
  120.5944  124.0727   84.3828 C   0  0  0  0  0  0  0  0  0  0  0  0
  121.6827  122.9897   84.3907 C   0  0  0  0  0  0  0  0  0  0  0  0
  122.4828  122.8802   83.4659 O   0  0  0  0  0  0  0  0  0  0  0  0
  121.6432  122.1979   85.5337 N   0  0  0  0  0  0  0  0  0  0  0  0
  122.6912  121.9479   86.4641 C   0  0  0  0  0  0  0  0  0  0  0  0
  124.0194  121.7472   86.0673 C   0  0  0  0  0  0  0  0  0  0  0  0
  125.0342  121.5063   87.0071 C   0  0  0  0  0  0  0  0  0  0  0  0
  126.3531  121.3018   86.6870 O   0  0  0  0  0  0  0  0  0  0  0  0
  126.7943  121.7138   85.4004 C   0  0  0  0  0  0  0  0  0  0  0  0
  124.7258  121.4691   88.3792 C   0  0  0  0  0  0  0  0  0  0  0  0
  125.7737  121.2286   89.2312 O   0  0  0  0  0  0  0  0  0  0  0  0
  125.8365  121.9728   90.4378 C   0  0  0  0  0  0  0  0  0  0  0  0
  123.4059  121.6591   88.7882 C   0  0  0  0  0  0  0  0  0  0  0  0
  122.3958  121.8963   87.8414 C   0  0  0  0  0  0  0  0  0  0  0  0
  121.0587  122.0846   88.3226 C   0  0  0  0  0  0  0  0  0  0  0  0
  119.9622  122.2464   88.6608 N   0  0  0  0  0  0  0  0  0  0  0  0
  120.4025  124.9574   81.5082 H   0  0  0  0  0  0  0  0  0  0  0  0
  120.8621  123.5416   80.5027 H   0  0  0  0  0  0  0  0  0  0  0  0
  119.1650  124.1302   80.5027 H   0  0  0  0  0  0  0  0  0  0  0  0
  118.8727  122.4419   82.0049 H   0  0  0  0  0  0  0  0  0  0  0  0
  120.6377  122.4439   82.4668 H   0  0  0  0  0  0  0  0  0  0  0  0
  118.6018  122.4734   84.9200 H   0  0  0  0  0  0  0  0  0  0  0  0
  117.8044  124.1374   84.7024 H   0  0  0  0  0  0  0  0  0  0  0  0
  116.3637  122.2350   84.0366 H   0  0  0  0  0  0  0  0  0  0  0  0
  116.6991  123.4358   82.7435 H   0  0  0  0  0  0  0  0  0  0  0  0
  117.5510  121.8544   82.7435 H   0  0  0  0  0  0  0  0  0  0  0  0
  121.0470  125.0117   84.0316 H   0  0  0  0  0  0  0  0  0  0  0  0
  120.2111  124.1376   85.4119 H   0  0  0  0  0  0  0  0  0  0  0  0
  120.7445  121.7352   85.7314 H   0  0  0  0  0  0  0  0  0  0  0  0
  124.2726  121.7790   84.9973 H   0  0  0  0  0  0  0  0  0  0  0  0
  127.5945  122.4607   85.5090 H   0  0  0  0  0  0  0  0  0  0  0  0
  127.1779  120.8432   84.8482 H   0  0  0  0  0  0  0  0  0  0  0  0
  125.9522  122.1563   84.8482 H   0  0  0  0  0  0  0  0  0  0  0  0
  125.7786  121.2864   91.2954 H   0  0  0  0  0  0  0  0  0  0  0  0
  126.7848  122.5289   90.4766 H   0  0  0  0  0  0  0  0  0  0  0  0
  124.9948  122.6799   90.4766 H   0  0  0  0  0  0  0  0  0  0  0  0
  123.1546  121.6229   89.8585 H   0  0  0  0  0  0  0  0  0  0  0  0
  1  2  1  0
  2  3  1  0
  3  4  1  0
  4  5  1  0
  3  6  1  0
  6  7  1  0
  7  8  2  0
  7  9  1  0
  9 10  1  0
 10 11  2  0
 11 12  1  0
 12 13  1  0
 13 14  1  0
 12 15  2  0
 15 16  1  0
 16 17  1  0
 15 18  1  0
 18 19  2  0
 19 20  1  0
 20 21  3  0
 19 10  1  0
  1 22  1  0
  1 23  1  0
  1 24  1  0
  2 25  1  0
  2 26  1  0
  4 27  1  0
  4 28  1  0
  5 29  1  0
  5 30  1  0
  5 31  1  0
  6 32  1  0
  6 33  1  0
  9 34  1  0
 11 35  1  0
 14 36  1  0
 14 37  1  0
 14 38  1  0
 17 39  1  0
 17 40  1  0
 17 41  1  0
 18 42  1  0
M  END
>  <loss>  (4) 
0.28727585077285767

>  <score>  (4) 
7.4163947105407715

$$$$
HVXKWUADFCSFOS-UHFFFAOYSA-N
     RDKit          3D

 42 42  0  0  0  0  0  0  0  0999 V2000
  119.7069  124.0321   81.0816 C   0  0  0  0  0  0  0  0  0  0  0  0
  120.1931  123.4411   82.3982 C   0  0  0  0  0  0  0  0  0  0  0  0
  119.2197  123.5774   83.4867 N   0  0  0  0  0  0  0  0  0  0  0  0
  118.1808  122.5420   83.4856 C   0  0  0  0  0  0  0  0  0  0  0  0
  117.9183  121.8118   82.1712 C   0  0  0  0  0  0  0  0  0  0  0  0
  119.7892  123.8900   84.8102 C   0  0  0  0  0  0  0  0  0  0  0  0
  121.2886  123.5896   84.9466 C   0  0  0  0  0  0  0  0  0  0  0  0
  122.1383  124.3789   84.5438 O   0  0  0  0  0  0  0  0  0  0  0  0
  121.5369  122.3682   85.5643 N   0  0  0  0  0  0  0  0  0  0  0  0
  122.5913  122.0374   86.4616 C   0  0  0  0  0  0  0  0  0  0  0  0
  123.9023  121.8003   86.0294 C   0  0  0  0  0  0  0  0  0  0  0  0
  124.9241  121.4796   86.9372 C   0  0  0  0  0  0  0  0  0  0  0  0
  126.2271  121.2359   86.5817 O   0  0  0  0  0  0  0  0  0  0  0  0
  126.7538  121.9444   85.4679 C   0  0  0  0  0  0  0  0  0  0  0  0
  124.6406  121.3972   88.3128 C   0  0  0  0  0  0  0  0  0  0  0  0
  125.6938  121.0792   89.1322 O   0  0  0  0  0  0  0  0  0  0  0  0
  125.9751  121.9430   90.2223 C   0  0  0  0  0  0  0  0  0  0  0  0
  123.3377  121.6227   88.7565 C   0  0  0  0  0  0  0  0  0  0  0  0
  122.3203  121.9399   87.8415 C   0  0  0  0  0  0  0  0  0  0  0  0
  121.0015  122.1614   88.3577 C   0  0  0  0  0  0  0  0  0  0  0  0
  119.9192  122.3528   88.7249 N   0  0  0  0  0  0  0  0  0  0  0  0
  119.0203  124.8669   81.2858 H   0  0  0  0  0  0  0  0  0  0  0  0
  120.5683  124.3987   80.5040 H   0  0  0  0  0  0  0  0  0  0  0  0
  119.1810  123.2577   80.5040 H   0  0  0  0  0  0  0  0  0  0  0  0
  120.4000  122.3715   82.2460 H   0  0  0  0  0  0  0  0  0  0  0  0
  121.0943  123.9982   82.6937 H   0  0  0  0  0  0  0  0  0  0  0  0
  118.4675  121.7861   84.2315 H   0  0  0  0  0  0  0  0  0  0  0  0
  117.2461  123.0811   83.6995 H   0  0  0  0  0  0  0  0  0  0  0  0
  117.5532  120.7959   82.3827 H   0  0  0  0  0  0  0  0  0  0  0  0
  117.1611  122.3604   81.5919 H   0  0  0  0  0  0  0  0  0  0  0  0
  118.8515  121.7529   81.5919 H   0  0  0  0  0  0  0  0  0  0  0  0
  119.6344  124.9613   85.0061 H   0  0  0  0  0  0  0  0  0  0  0  0
  119.2736  123.2409   85.5332 H   0  0  0  0  0  0  0  0  0  0  0  0
  120.8760  121.6091   85.3453 H   0  0  0  0  0  0  0  0  0  0  0  0
  124.1361  121.8669   84.9566 H   0  0  0  0  0  0  0  0  0  0  0  0
  127.3745  122.7794   85.8247 H   0  0  0  0  0  0  0  0  0  0  0  0
  127.3680  121.2652   84.8585 H   0  0  0  0  0  0  0  0  0  0  0  0
  125.9264  122.3368   84.8585 H   0  0  0  0  0  0  0  0  0  0  0  0
  125.8011  121.4086   91.1679 H   0  0  0  0  0  0  0  0  0  0  0  0
  127.0251  122.2669   90.1720 H   0  0  0  0  0  0  0  0  0  0  0  0
  125.3171  122.8230   90.1720 H   0  0  0  0  0  0  0  0  0  0  0  0
  123.1055  121.5517   89.8294 H   0  0  0  0  0  0  0  0  0  0  0  0
  1  2  1  0
  2  3  1  0
  3  4  1  0
  4  5  1  0
  3  6  1  0
  6  7  1  0
  7  8  2  0
  7  9  1  0
  9 10  1  0
 10 11  2  0
 11 12  1  0
 12 13  1  0
 13 14  1  0
 12 15  2  0
 15 16  1  0
 16 17  1  0
 15 18  1  0
 18 19  2  0
 19 20  1  0
 20 21  3  0
 19 10  1  0
  1 22  1  0
  1 23  1  0
  1 24  1  0
  2 25  1  0
  2 26  1  0
  4 27  1  0
  4 28  1  0
  5 29  1  0
  5 30  1  0
  5 31  1  0
  6 32  1  0
  6 33  1  0
  9 34  1  0
 11 35  1  0
 14 36  1  0
 14 37  1  0
 14 38  1  0
 17 39  1  0
 17 40  1  0
 17 41  1  0
 18 42  1  0
M  END
>  <loss>  (5) 
0.2870583236217499

>  <score>  (5) 
7.371465682983398

$$$$
HVXKWUADFCSFOS-UHFFFAOYSA-N
     RDKit          3D

 42 42  0  0  0  0  0  0  0  0999 V2000
  119.8393  124.8481   81.6701 C   0  0  0  0  0  0  0  0  0  0  0  0
  119.2560  124.4754   83.0311 C   0  0  0  0  0  0  0  0  0  0  0  0
  119.3926  123.0672   83.4586 N   0  0  0  0  0  0  0  0  0  0  0  0
  118.4019  122.1606   82.8548 C   0  0  0  0  0  0  0  0  0  0  0  0
  116.9697  122.4383   83.3024 C   0  0  0  0  0  0  0  0  0  0  0  0
  120.7674  122.5438   83.2352 C   0  0  0  0  0  0  0  0  0  0  0  0
  121.7432  123.0785   84.2982 C   0  0  0  0  0  0  0  0  0  0  0  0
  122.4743  124.0362   84.0655 O   0  0  0  0  0  0  0  0  0  0  0  0
  121.7147  122.3186   85.4571 N   0  0  0  0  0  0  0  0  0  0  0  0
  122.7652  122.0263   86.3587 C   0  0  0  0  0  0  0  0  0  0  0  0
  124.0878  121.8347   85.9249 C   0  0  0  0  0  0  0  0  0  0  0  0
  125.1183  121.5424   86.8291 C   0  0  0  0  0  0  0  0  0  0  0  0
  126.4318  121.3672   86.4845 O   0  0  0  0  0  0  0  0  0  0  0  0
  126.8119  121.6938   85.1535 C   0  0  0  0  0  0  0  0  0  0  0  0
  124.8070  121.4163   88.1883 C   0  0  0  0  0  0  0  0  0  0  0  0
  125.7554  121.1630   89.1469 O   0  0  0  0  0  0  0  0  0  0  0  0
  125.3665  121.7056   90.4103 C   0  0  0  0  0  0  0  0  0  0  0  0
  123.5072  121.6260   88.6442 C   0  0  0  0  0  0  0  0  0  0  0  0
  122.4841  121.9207   87.7364 C   0  0  0  0  0  0  0  0  0  0  0  0
  121.1601  122.1118   88.2548 C   0  0  0  0  0  0  0  0  0  0  0  0
  120.0813  122.2683   88.6531 N   0  0  0  0  0  0  0  0  0  0  0  0
  120.7583  125.4353   81.8134 H   0  0  0  0  0  0  0  0  0  0  0  0
  120.0734  123.9319   81.1082 H   0  0  0  0  0  0  0  0  0  0  0  0
  119.1063  125.4456   81.1082 H   0  0  0  0  0  0  0  0  0  0  0  0
  119.7528  125.1011   83.7873 H   0  0  0  0  0  0  0  0  0  0  0  0
  118.1728  124.6391   82.9314 H   0  0  0  0  0  0  0  0  0  0  0  0
  118.4521  122.2687   81.7613 H   0  0  0  0  0  0  0  0  0  0  0  0
  118.6522  121.1417   83.1855 H   0  0  0  0  0  0  0  0  0  0  0  0
  116.9242  122.4471   84.4014 H   0  0  0  0  0  0  0  0  0  0  0  0
  116.6473  123.4157   82.9142 H   0  0  0  0  0  0  0  0  0  0  0  0
  116.3053  121.6522   82.9142 H   0  0  0  0  0  0  0  0  0  0  0  0
  120.7465  121.4452   83.2870 H   0  0  0  0  0  0  0  0  0  0  0  0
  121.1119  122.8777   82.2453 H   0  0  0  0  0  0  0  0  0  0  0  0
  120.8001  121.9092   85.6954 H   0  0  0  0  0  0  0  0  0  0  0  0
  124.3196  121.9158   84.8526 H   0  0  0  0  0  0  0  0  0  0  0  0
  127.6461  122.4105   85.1757 H   0  0  0  0  0  0  0  0  0  0  0  0
  127.1271  120.7804   84.6276 H   0  0  0  0  0  0  0  0  0  0  0  0
  125.9565  122.1429   84.6276 H   0  0  0  0  0  0  0  0  0  0  0  0
  125.8009  121.0996   91.2190 H   0  0  0  0  0  0  0  0  0  0  0  0
  125.7295  122.7407   90.4922 H   0  0  0  0  0  0  0  0  0  0  0  0
  124.2696  121.6942   90.4922 H   0  0  0  0  0  0  0  0  0  0  0  0
  123.2849  121.5597   89.7195 H   0  0  0  0  0  0  0  0  0  0  0  0
  1  2  1  0
  2  3  1  0
  3  4  1  0
  4  5  1  0
  3  6  1  0
  6  7  1  0
  7  8  2  0
  7  9  1  0
  9 10  1  0
 10 11  2  0
 11 12  1  0
 12 13  1  0
 13 14  1  0
 12 15  2  0
 15 16  1  0
 16 17  1  0
 15 18  1  0
 18 19  2  0
 19 20  1  0
 20 21  3  0
 19 10  1  0
  1 22  1  0
  1 23  1  0
  1 24  1  0
  2 25  1  0
  2 26  1  0
  4 27  1  0
  4 28  1  0
  5 29  1  0
  5 30  1  0
  5 31  1  0
  6 32  1  0
  6 33  1  0
  9 34  1  0
 11 35  1  0
 14 36  1  0
 14 37  1  0
 14 38  1  0
 17 39  1  0
 17 40  1  0
 17 41  1  0
 18 42  1  0
M  END
>  <loss>  (6) 
0.27790385484695435

>  <score>  (6) 
7.2719197273254395

$$$$
HVXKWUADFCSFOS-UHFFFAOYSA-N
     RDKit          3D

 42 42  0  0  0  0  0  0  0  0999 V2000
  117.4992  121.2716   83.0624 C   0  0  0  0  0  0  0  0  0  0  0  0
  117.9212  122.6118   83.6515 C   0  0  0  0  0  0  0  0  0  0  0  0
  119.3516  122.9097   83.4917 N   0  0  0  0  0  0  0  0  0  0  0  0
  119.6696  123.3327   82.1175 C   0  0  0  0  0  0  0  0  0  0  0  0
  119.3966  124.7982   81.7888 C   0  0  0  0  0  0  0  0  0  0  0  0
  119.8851  123.8631   84.4851 C   0  0  0  0  0  0  0  0  0  0  0  0
  121.3643  123.5845   84.8131 C   0  0  0  0  0  0  0  0  0  0  0  0
  122.2592  124.3496   84.4645 O   0  0  0  0  0  0  0  0  0  0  0  0
  121.5374  122.4178   85.5516 N   0  0  0  0  0  0  0  0  0  0  0  0
  122.6009  122.0945   86.4413 C   0  0  0  0  0  0  0  0  0  0  0  0
  123.9153  121.8872   86.0036 C   0  0  0  0  0  0  0  0  0  0  0  0
  124.9444  121.5681   86.9034 C   0  0  0  0  0  0  0  0  0  0  0  0
  126.2516  121.3526   86.5398 O   0  0  0  0  0  0  0  0  0  0  0  0
  126.6163  121.6123   85.1903 C   0  0  0  0  0  0  0  0  0  0  0  0
  124.6639  121.4537   88.2772 C   0  0  0  0  0  0  0  0  0  0  0  0
  125.7250  121.1411   89.0880 O   0  0  0  0  0  0  0  0  0  0  0  0
  125.7849  121.7434   90.3729 C   0  0  0  0  0  0  0  0  0  0  0  0
  123.3592  121.6577   88.7271 C   0  0  0  0  0  0  0  0  0  0  0  0
  122.3352  121.9746   87.8202 C   0  0  0  0  0  0  0  0  0  0  0  0
  121.0140  122.1706   88.3420 C   0  0  0  0  0  0  0  0  0  0  0  0
  119.9268  122.3389   88.7107 N   0  0  0  0  0  0  0  0  0  0  0  0
  117.2773  120.5666   83.8771 H   0  0  0  0  0  0  0  0  0  0  0  0
  116.6012  121.4101   82.4424 H   0  0  0  0  0  0  0  0  0  0  0  0
  118.3146  120.8706   82.4424 H   0  0  0  0  0  0  0  0  0  0  0  0
  117.3446  123.4056   83.1541 H   0  0  0  0  0  0  0  0  0  0  0  0
  117.7249  122.5610   84.7327 H   0  0  0  0  0  0  0  0  0  0  0  0
  120.7394  123.1428   81.9459 H   0  0  0  0  0  0  0  0  0  0  0  0
  118.9995  122.7526   81.4659 H   0  0  0  0  0  0  0  0  0  0  0  0
  119.2901  125.3697   82.7226 H   0  0  0  0  0  0  0  0  0  0  0  0
  120.2344  125.2049   81.2035 H   0  0  0  0  0  0  0  0  0  0  0  0
  118.4685  124.8760   81.2035 H   0  0  0  0  0  0  0  0  0  0  0  0
  119.7963  124.8829   84.0824 H   0  0  0  0  0  0  0  0  0  0  0  0
  119.3036  123.7503   85.4120 H   0  0  0  0  0  0  0  0  0  0  0  0
  120.8066  121.7004   85.4411 H   0  0  0  0  0  0  0  0  0  0  0  0
  124.1460  121.9763   84.9317 H   0  0  0  0  0  0  0  0  0  0  0  0
  127.5122  122.2501   85.1688 H   0  0  0  0  0  0  0  0  0  0  0  0
  126.8303  120.6621   84.6790 H   0  0  0  0  0  0  0  0  0  0  0  0
  125.7885  122.1254   84.6790 H   0  0  0  0  0  0  0  0  0  0  0  0
  125.7075  120.9653   91.1466 H   0  0  0  0  0  0  0  0  0  0  0  0
  126.7405  122.2769   90.4837 H   0  0  0  0  0  0  0  0  0  0  0  0
  124.9530  122.4546   90.4837 H   0  0  0  0  0  0  0  0  0  0  0  0
  123.1312  121.5696   89.7996 H   0  0  0  0  0  0  0  0  0  0  0  0
  1  2  1  0
  2  3  1  0
  3  4  1  0
  4  5  1  0
  3  6  1  0
  6  7  1  0
  7  8  2  0
  7  9  1  0
  9 10  1  0
 10 11  2  0
 11 12  1  0
 12 13  1  0
 13 14  1  0
 12 15  2  0
 15 16  1  0
 16 17  1  0
 15 18  1  0
 18 19  2  0
 19 20  1  0
 20 21  3  0
 19 10  1  0
  1 22  1  0
  1 23  1  0
  1 24  1  0
  2 25  1  0
  2 26  1  0
  4 27  1  0
  4 28  1  0
  5 29  1  0
  5 30  1  0
  5 31  1  0
  6 32  1  0
  6 33  1  0
  9 34  1  0
 11 35  1  0
 14 36  1  0
 14 37  1  0
 14 38  1  0
 17 39  1  0
 17 40  1  0
 17 41  1  0
 18 42  1  0
M  END
>  <loss>  (7) 
0.2899321913719177

>  <score>  (7) 
7.296840190887451

$$$$
HVXKWUADFCSFOS-UHFFFAOYSA-N
     RDKit          3D

 42 42  0  0  0  0  0  0  0  0999 V2000
  116.9894  122.0438   83.3125 C   0  0  0  0  0  0  0  0  0  0  0  0
  117.9042  123.2212   83.6256 C   0  0  0  0  0  0  0  0  0  0  0  0
  119.3210  122.9723   83.3243 N   0  0  0  0  0  0  0  0  0  0  0  0
  119.5916  123.0468   81.8787 C   0  0  0  0  0  0  0  0  0  0  0  0
  119.3308  124.3982   81.2184 C   0  0  0  0  0  0  0  0  0  0  0  0
  120.2594  123.8157   84.0915 C   0  0  0  0  0  0  0  0  0  0  0  0
  121.5776  123.0790   84.3963 C   0  0  0  0  0  0  0  0  0  0  0  0
  122.5571  123.1757   83.6622 O   0  0  0  0  0  0  0  0  0  0  0  0
  121.5201  122.3480   85.5790 N   0  0  0  0  0  0  0  0  0  0  0  0
  122.5851  122.0468   86.4747 C   0  0  0  0  0  0  0  0  0  0  0  0
  123.9002  121.8355   86.0408 C   0  0  0  0  0  0  0  0  0  0  0  0
  124.9307  121.5386   86.9466 C   0  0  0  0  0  0  0  0  0  0  0  0
  126.2386  121.3206   86.5870 O   0  0  0  0  0  0  0  0  0  0  0  0
  126.7389  122.0147   85.4514 C   0  0  0  0  0  0  0  0  0  0  0  0
  124.6511  121.4513   88.3225 C   0  0  0  0  0  0  0  0  0  0  0  0
  125.7136  121.1593   89.1391 O   0  0  0  0  0  0  0  0  0  0  0  0
  125.8289  121.8670   90.3652 C   0  0  0  0  0  0  0  0  0  0  0  0
  123.3458  121.6596   88.7686 C   0  0  0  0  0  0  0  0  0  0  0  0
  122.3202  121.9542   87.8559 C   0  0  0  0  0  0  0  0  0  0  0  0
  120.9986  122.1559   88.3740 C   0  0  0  0  0  0  0  0  0  0  0  0
  119.9108  122.3277   88.7397 N   0  0  0  0  0  0  0  0  0  0  0  0
  116.6384  121.5921   84.2521 H   0  0  0  0  0  0  0  0  0  0  0  0
  116.1254  122.3956   82.7297 H   0  0  0  0  0  0  0  0  0  0  0  0
  117.5438  121.2936   82.7297 H   0  0  0  0  0  0  0  0  0  0  0  0
  117.5709  124.0858   83.0328 H   0  0  0  0  0  0  0  0  0  0  0  0
  117.8351  123.3995   84.7089 H   0  0  0  0  0  0  0  0  0  0  0  0
  120.6505  122.7938   81.7210 H   0  0  0  0  0  0  0  0  0  0  0  0
  118.8866  122.3457   81.4083 H   0  0  0  0  0  0  0  0  0  0  0  0
  119.1832  125.1633   81.9948 H   0  0  0  0  0  0  0  0  0  0  0  0
  120.1926  124.6728   80.5923 H   0  0  0  0  0  0  0  0  0  0  0  0
  118.4288  124.3324   80.5923 H   0  0  0  0  0  0  0  0  0  0  0  0
  120.4844  124.7197   83.5066 H   0  0  0  0  0  0  0  0  0  0  0  0
  119.7827  124.0711   85.0493 H   0  0  0  0  0  0  0  0  0  0  0  0
  120.5938  121.9797   85.8382 H   0  0  0  0  0  0  0  0  0  0  0  0
  124.1302  121.9036   84.9672 H   0  0  0  0  0  0  0  0  0  0  0  0
  127.3523  122.8656   85.7826 H   0  0  0  0  0  0  0  0  0  0  0  0
  127.3543  121.3325   84.8465 H   0  0  0  0  0  0  0  0  0  0  0  0
  125.8972  122.3829   84.8465 H   0  0  0  0  0  0  0  0  0  0  0  0
  125.7147  121.1661   91.2052 H   0  0  0  0  0  0  0  0  0  0  0  0
  126.8171  122.3470   90.4199 H   0  0  0  0  0  0  0  0  0  0  0  0
  125.0442  122.6359   90.4199 H   0  0  0  0  0  0  0  0  0  0  0  0
  123.1184  121.5926   89.8428 H   0  0  0  0  0  0  0  0  0  0  0  0
  1  2  1  0
  2  3  1  0
  3  4  1  0
  4  5  1  0
  3  6  1  0
  6  7  1  0
  7  8  2  0
  7  9  1  0
  9 10  1  0
 10 11  2  0
 11 12  1  0
 12 13  1  0
 13 14  1  0
 12 15  2  0
 15 16  1  0
 16 17  1  0
 15 18  1  0
 18 19  2  0
 19 20  1  0
 20 21  3  0
 19 10  1  0
  1 22  1  0
  1 23  1  0
  1 24  1  0
  2 25  1  0
  2 26  1  0
  4 27  1  0
  4 28  1  0
  5 29  1  0
  5 30  1  0
  5 31  1  0
  6 32  1  0
  6 33  1  0
  9 34  1  0
 11 35  1  0
 14 36  1  0
 14 37  1  0
 14 38  1  0
 17 39  1  0
 17 40  1  0
 17 41  1  0
 18 42  1  0
M  END
>  <loss>  (8) 
0.291996568441391

>  <score>  (8) 
7.287769317626953

$$$$
HVXKWUADFCSFOS-UHFFFAOYSA-N
     RDKit          3D

 42 42  0  0  0  0  0  0  0  0999 V2000
  119.7927  123.9338   80.8138 C   0  0  0  0  0  0  0  0  0  0  0  0
  119.8617  123.0075   82.0206 C   0  0  0  0  0  0  0  0  0  0  0  0
  119.4606  123.6586   83.2720 N   0  0  0  0  0  0  0  0  0  0  0  0
  118.3554  122.9854   83.9625 C   0  0  0  0  0  0  0  0  0  0  0  0
  117.2008  122.4724   83.1060 C   0  0  0  0  0  0  0  0  0  0  0  0
  120.5679  124.0950   84.1421 C   0  0  0  0  0  0  0  0  0  0  0  0
  121.6523  123.0335   84.3755 C   0  0  0  0  0  0  0  0  0  0  0  0
  122.5143  122.8036   83.5322 O   0  0  0  0  0  0  0  0  0  0  0  0
  121.5333  122.4082   85.6124 N   0  0  0  0  0  0  0  0  0  0  0  0
  122.5714  122.0547   86.5200 C   0  0  0  0  0  0  0  0  0  0  0  0
  123.8851  121.8061   86.1026 C   0  0  0  0  0  0  0  0  0  0  0  0
  124.8906  121.4628   87.0203 C   0  0  0  0  0  0  0  0  0  0  0  0
  126.1952  121.2069   86.6794 O   0  0  0  0  0  0  0  0  0  0  0  0
  126.8038  122.0479   85.7088 C   0  0  0  0  0  0  0  0  0  0  0  0
  124.5878  121.3691   88.3910 C   0  0  0  0  0  0  0  0  0  0  0  0
  125.6260  121.0292   89.2208 O   0  0  0  0  0  0  0  0  0  0  0  0
  126.1569  122.0340   90.0705 C   0  0  0  0  0  0  0  0  0  0  0  0
  123.2819  121.6059   88.8199 C   0  0  0  0  0  0  0  0  0  0  0  0
  122.2808  121.9456   87.8950 C   0  0  0  0  0  0  0  0  0  0  0  0
  120.9580  122.1778   88.3960 C   0  0  0  0  0  0  0  0  0  0  0  0
  119.8733  122.3787   88.7509 N   0  0  0  0  0  0  0  0  0  0  0  0
  119.7151  124.9764   81.1558 H   0  0  0  0  0  0  0  0  0  0  0  0
  120.7023  123.8137   80.2070 H   0  0  0  0  0  0  0  0  0  0  0  0
  118.9110  123.6803   80.2070 H   0  0  0  0  0  0  0  0  0  0  0  0
  119.1947  122.1511   81.8426 H   0  0  0  0  0  0  0  0  0  0  0  0
  120.9108  122.6972   82.1350 H   0  0  0  0  0  0  0  0  0  0  0  0
  118.7778  122.1224   84.4980 H   0  0  0  0  0  0  0  0  0  0  0  0
  117.9087  123.7612   84.6016 H   0  0  0  0  0  0  0  0  0  0  0  0
  116.3917  122.1130   83.7587 H   0  0  0  0  0  0  0  0  0  0  0  0
  116.8247  123.2881   82.4711 H   0  0  0  0  0  0  0  0  0  0  0  0
  117.5540  121.6466   82.4711 H   0  0  0  0  0  0  0  0  0  0  0  0
  121.0415  124.9739   83.6803 H   0  0  0  0  0  0  0  0  0  0  0  0
  120.1255  124.3111   85.1258 H   0  0  0  0  0  0  0  0  0  0  0  0
  120.5754  122.1717   85.9082 H   0  0  0  0  0  0  0  0  0  0  0  0
  124.1341  121.8813   85.0338 H   0  0  0  0  0  0  0  0  0  0  0  0
  127.3761  122.8387   86.2160 H   0  0  0  0  0  0  0  0  0  0  0  0
  127.4809  121.4515   85.0796 H   0  0  0  0  0  0  0  0  0  0  0  0
  126.0257  122.5046   85.0796 H   0  0  0  0  0  0  0  0  0  0  0  0
  126.0039  121.7445   91.1207 H   0  0  0  0  0  0  0  0  0  0  0  0
  127.2332  122.1486   89.8748 H   0  0  0  0  0  0  0  0  0  0  0  0
  125.6450  122.9878   89.8748 H   0  0  0  0  0  0  0  0  0  0  0  0
  123.0345  121.5262   89.8887 H   0  0  0  0  0  0  0  0  0  0  0  0
  1  2  1  0
  2  3  1  0
  3  4  1  0
  4  5  1  0
  3  6  1  0
  6  7  1  0
  7  8  2  0
  7  9  1  0
  9 10  1  0
 10 11  2  0
 11 12  1  0
 12 13  1  0
 13 14  1  0
 12 15  2  0
 15 16  1  0
 16 17  1  0
 15 18  1  0
 18 19  2  0
 19 20  1  0
 20 21  3  0
 19 10  1  0
  1 22  1  0
  1 23  1  0
  1 24  1  0
  2 25  1  0
  2 26  1  0
  4 27  1  0
  4 28  1  0
  5 29  1  0
  5 30  1  0
  5 31  1  0
  6 32  1  0
  6 33  1  0
  9 34  1  0
 11 35  1  0
 14 36  1  0
 14 37  1  0
 14 38  1  0
 17 39  1  0
 17 40  1  0
 17 41  1  0
 18 42  1  0
M  END
>  <loss>  (9) 
0.2820112407207489

>  <score>  (9) 
7.230749130249023

$$$$
HVXKWUADFCSFOS-UHFFFAOYSA-N
     RDKit          3D

 42 42  0  0  0  0  0  0  0  0999 V2000
  120.2049  125.5087   82.0796 C   0  0  0  0  0  0  0  0  0  0  0  0
  119.8778  124.0238   82.1622 C   0  0  0  0  0  0  0  0  0  0  0  0
  119.2638  123.6378   83.4368 N   0  0  0  0  0  0  0  0  0  0  0  0
  118.4711  122.4057   83.3637 C   0  0  0  0  0  0  0  0  0  0  0  0
  118.2612  121.7866   81.9844 C   0  0  0  0  0  0  0  0  0  0  0  0
  120.1362  123.7503   84.6200 C   0  0  0  0  0  0  0  0  0  0  0  0
  121.4511  122.9639   84.5201 C   0  0  0  0  0  0  0  0  0  0  0  0
  122.2573  123.1776   83.6193 O   0  0  0  0  0  0  0  0  0  0  0  0
  121.5974  122.0315   85.5421 N   0  0  0  0  0  0  0  0  0  0  0  0
  122.6967  121.8711   86.4322 C   0  0  0  0  0  0  0  0  0  0  0  0
  124.0125  121.7038   85.9822 C   0  0  0  0  0  0  0  0  0  0  0  0
  125.0787  121.5515   86.8828 C   0  0  0  0  0  0  0  0  0  0  0  0
  126.3889  121.3840   86.5101 O   0  0  0  0  0  0  0  0  0  0  0  0
  126.7356  121.6669   85.1612 C   0  0  0  0  0  0  0  0  0  0  0  0
  124.8356  121.5715   88.2684 C   0  0  0  0  0  0  0  0  0  0  0  0
  125.9308  121.4165   89.0798 O   0  0  0  0  0  0  0  0  0  0  0  0
  125.7775  121.6831   90.4651 C   0  0  0  0  0  0  0  0  0  0  0  0
  123.5291  121.7290   88.7306 C   0  0  0  0  0  0  0  0  0  0  0  0
  122.4673  121.8774   87.8230 C   0  0  0  0  0  0  0  0  0  0  0  0
  121.1470  122.0363   88.3581 C   0  0  0  0  0  0  0  0  0  0  0  0
  120.0614  122.1710   88.7402 N   0  0  0  0  0  0  0  0  0  0  0  0
  120.2958  125.9212   83.0952 H   0  0  0  0  0  0  0  0  0  0  0  0
  121.1547  125.6456   81.5419 H   0  0  0  0  0  0  0  0  0  0  0  0
  119.4005  126.0320   81.5419 H   0  0  0  0  0  0  0  0  0  0  0  0
  119.1812  123.7734   81.3485 H   0  0  0  0  0  0  0  0  0  0  0  0
  120.8270  123.4746   82.0769 H   0  0  0  0  0  0  0  0  0  0  0  0
  118.9722  121.6533   83.9903 H   0  0  0  0  0  0  0  0  0  0  0  0
  117.4645  122.6986   83.6968 H   0  0  0  0  0  0  0  0  0  0  0  0
  117.9098  120.7504   82.0972 H   0  0  0  0  0  0  0  0  0  0  0  0
  117.5107  122.3701   81.4310 H   0  0  0  0  0  0  0  0  0  0  0  0
  119.2118  121.7933   81.4310 H   0  0  0  0  0  0  0  0  0  0  0  0
  120.3817  124.8126   84.7657 H   0  0  0  0  0  0  0  0  0  0  0  0
  119.5769  123.3178   85.4627 H   0  0  0  0  0  0  0  0  0  0  0  0
  120.8132  121.3762   85.6708 H   0  0  0  0  0  0  0  0  0  0  0  0
  124.2146  121.6915   84.9010 H   0  0  0  0  0  0  0  0  0  0  0  0
  127.5877  122.3623   85.1397 H   0  0  0  0  0  0  0  0  0  0  0  0
  127.0116  120.7329   84.6499 H   0  0  0  0  0  0  0  0  0  0  0  0
  125.8759  122.1246   84.6499 H   0  0  0  0  0  0  0  0  0  0  0  0
  126.2427  120.8743   91.0477 H   0  0  0  0  0  0  0  0  0  0  0  0
  126.2640  122.6386   90.7106 H   0  0  0  0  0  0  0  0  0  0  0  0
  124.7069  121.7429   90.7106 H   0  0  0  0  0  0  0  0  0  0  0  0
  123.3290  121.7371   89.8122 H   0  0  0  0  0  0  0  0  0  0  0  0
  1  2  1  0
  2  3  1  0
  3  4  1  0
  4  5  1  0
  3  6  1  0
  6  7  1  0
  7  8  2  0
  7  9  1  0
  9 10  1  0
 10 11  2  0
 11 12  1  0
 12 13  1  0
 13 14  1  0
 12 15  2  0
 15 16  1  0
 16 17  1  0
 15 18  1  0
 18 19  2  0
 19 20  1  0
 20 21  3  0
 19 10  1  0
  1 22  1  0
  1 23  1  0
  1 24  1  0
  2 25  1  0
  2 26  1  0
  4 27  1  0
  4 28  1  0
  5 29  1  0
  5 30  1  0
  5 31  1  0
  6 32  1  0
  6 33  1  0
  9 34  1  0
 11 35  1  0
 14 36  1  0
 14 37  1  0
 14 38  1  0
 17 39  1  0
 17 40  1  0
 17 41  1  0
 18 42  1  0
M  END
>  <loss>  (10) 
0.27857017517089844

>  <score>  (10) 
6.9848809242248535

$$$$
HVXKWUADFCSFOS-UHFFFAOYSA-N
     RDKit          3D

 42 42  0  0  0  0  0  0  0  0999 V2000
  120.8807  123.1890   80.6503 C   0  0  0  0  0  0  0  0  0  0  0  0
  119.7402  122.8821   81.6129 C   0  0  0  0  0  0  0  0  0  0  0  0
  119.7751  123.6738   82.8506 N   0  0  0  0  0  0  0  0  0  0  0  0
  118.6173  124.5782   82.9514 C   0  0  0  0  0  0  0  0  0  0  0  0
  117.4792  124.1095   83.8543 C   0  0  0  0  0  0  0  0  0  0  0  0
  119.9379  122.8695   84.0783 C   0  0  0  0  0  0  0  0  0  0  0  0
  121.4206  122.6887   84.4550 C   0  0  0  0  0  0  0  0  0  0  0  0
  122.3149  123.2932   83.8699 O   0  0  0  0  0  0  0  0  0  0  0  0
  121.5981  121.8115   85.5207 N   0  0  0  0  0  0  0  0  0  0  0  0
  122.6962  121.7425   86.4243 C   0  0  0  0  0  0  0  0  0  0  0  0
  124.0172  121.5605   85.9952 C   0  0  0  0  0  0  0  0  0  0  0  0
  125.0808  121.4949   86.9090 C   0  0  0  0  0  0  0  0  0  0  0  0
  126.3963  121.3182   86.5545 O   0  0  0  0  0  0  0  0  0  0  0  0
  126.8380  121.8977   85.3335 C   0  0  0  0  0  0  0  0  0  0  0  0
  124.8290  121.6157   88.2878 C   0  0  0  0  0  0  0  0  0  0  0  0
  125.9228  121.5424   89.1119 O   0  0  0  0  0  0  0  0  0  0  0  0
  125.7161  121.6761   90.5108 C   0  0  0  0  0  0  0  0  0  0  0  0
  123.5181  121.7974   88.7291 C   0  0  0  0  0  0  0  0  0  0  0  0
  122.4595  121.8601   87.8087 C   0  0  0  0  0  0  0  0  0  0  0  0
  121.1339  122.0459   88.3227 C   0  0  0  0  0  0  0  0  0  0  0  0
  120.0415  122.1946   88.6847 N   0  0  0  0  0  0  0  0  0  0  0  0
  121.7878  123.4332   81.2226 H   0  0  0  0  0  0  0  0  0  0  0  0
  121.0722  122.3105   80.0167 H   0  0  0  0  0  0  0  0  0  0  0  0
  120.6054  124.0450   80.0167 H   0  0  0  0  0  0  0  0  0  0  0  0
  118.7892  123.0850   81.0987 H   0  0  0  0  0  0  0  0  0  0  0  0
  119.8455  121.8271   81.9061 H   0  0  0  0  0  0  0  0  0  0  0  0
  118.9769  125.5437   83.3368 H   0  0  0  0  0  0  0  0  0  0  0  0
  118.1911  124.6287   81.9386 H   0  0  0  0  0  0  0  0  0  0  0  0
  117.7730  124.2305   84.9074 H   0  0  0  0  0  0  0  0  0  0  0  0
  116.5802  124.7105   83.6531 H   0  0  0  0  0  0  0  0  0  0  0  0
  117.2643  123.0496   83.6531 H   0  0  0  0  0  0  0  0  0  0  0  0
  119.4199  123.3757   84.9062 H   0  0  0  0  0  0  0  0  0  0  0  0
  119.5098  121.8735   83.8921 H   0  0  0  0  0  0  0  0  0  0  0  0
  120.8425  121.1287   85.6747 H   0  0  0  0  0  0  0  0  0  0  0  0
  124.2256  121.4671   84.9192 H   0  0  0  0  0  0  0  0  0  0  0  0
  127.4916  122.7554   85.5501 H   0  0  0  0  0  0  0  0  0  0  0  0
  127.3963  121.1485   84.7529 H   0  0  0  0  0  0  0  0  0  0  0  0
  125.9676  122.2373   84.7529 H   0  0  0  0  0  0  0  0  0  0  0  0
  126.5204  121.1558   91.0516 H   0  0  0  0  0  0  0  0  0  0  0  0
  125.7218  122.7421   90.7821 H   0  0  0  0  0  0  0  0  0  0  0  0
  124.7462  121.2338   90.7821 H   0  0  0  0  0  0  0  0  0  0  0  0
  123.3124  121.8922   89.8056 H   0  0  0  0  0  0  0  0  0  0  0  0
  1  2  1  0
  2  3  1  0
  3  4  1  0
  4  5  1  0
  3  6  1  0
  6  7  1  0
  7  8  2  0
  7  9  1  0
  9 10  1  0
 10 11  2  0
 11 12  1  0
 12 13  1  0
 13 14  1  0
 12 15  2  0
 15 16  1  0
 16 17  1  0
 15 18  1  0
 18 19  2  0
 19 20  1  0
 20 21  3  0
 19 10  1  0
  1 22  1  0
  1 23  1  0
  1 24  1  0
  2 25  1  0
  2 26  1  0
  4 27  1  0
  4 28  1  0
  5 29  1  0
  5 30  1  0
  5 31  1  0
  6 32  1  0
  6 33  1  0
  9 34  1  0
 11 35  1  0
 14 36  1  0
 14 37  1  0
 14 38  1  0
 17 39  1  0
 17 40  1  0
 17 41  1  0
 18 42  1  0
M  END
>  <loss>  (11) 
0.2835121750831604

>  <score>  (11) 
6.860054969787598

$$$$
HVXKWUADFCSFOS-UHFFFAOYSA-N
     RDKit          3D

 42 42  0  0  0  0  0  0  0  0999 V2000
  119.2978  123.3402   81.1522 C   0  0  0  0  0  0  0  0  0  0  0  0
  119.3459  122.5290   82.4400 C   0  0  0  0  0  0  0  0  0  0  0  0
  119.9490  123.1642   83.6228 N   0  0  0  0  0  0  0  0  0  0  0  0
  119.0951  124.1885   84.2442 C   0  0  0  0  0  0  0  0  0  0  0  0
  118.6895  125.3874   83.3935 C   0  0  0  0  0  0  0  0  0  0  0  0
  121.3437  123.6178   83.4043 C   0  0  0  0  0  0  0  0  0  0  0  0
  122.3306  122.7426   84.1852 C   0  0  0  0  0  0  0  0  0  0  0  0
  123.2859  122.1933   83.6490 O   0  0  0  0  0  0  0  0  0  0  0  0
  121.9969  122.6640   85.5316 N   0  0  0  0  0  0  0  0  0  0  0  0
  122.8558  122.2360   86.5643 C   0  0  0  0  0  0  0  0  0  0  0  0
  124.1671  121.9258   86.1775 C   0  0  0  0  0  0  0  0  0  0  0  0
  125.1063  121.4903   87.1149 C   0  0  0  0  0  0  0  0  0  0  0  0
  126.3543  121.2035   86.6358 O   0  0  0  0  0  0  0  0  0  0  0  0
  126.5385  121.6689   85.2978 C   0  0  0  0  0  0  0  0  0  0  0  0
  124.7541  121.4074   88.4627 C   0  0  0  0  0  0  0  0  0  0  0  0
  125.6374  121.0090   89.4290 O   0  0  0  0  0  0  0  0  0  0  0  0
  125.7928  122.0368   90.4094 C   0  0  0  0  0  0  0  0  0  0  0  0
  123.4389  121.6520   88.8523 C   0  0  0  0  0  0  0  0  0  0  0  0
  122.4763  122.0531   87.9100 C   0  0  0  0  0  0  0  0  0  0  0  0
  121.1126  122.0941   88.3561 C   0  0  0  0  0  0  0  0  0  0  0  0
  120.0237  122.0356   88.7571 N   0  0  0  0  0  0  0  0  0  0  0  0
  119.2342  124.4111   81.3955 H   0  0  0  0  0  0  0  0  0  0  0  0
  120.2087  123.1510   80.5654 H   0  0  0  0  0  0  0  0  0  0  0  0
  118.4156  123.0446   80.5654 H   0  0  0  0  0  0  0  0  0  0  0  0
  118.3108  122.2636   82.7007 H   0  0  0  0  0  0  0  0  0  0  0  0
  120.0069  121.6801   82.2110 H   0  0  0  0  0  0  0  0  0  0  0  0
  118.1705  123.6906   84.5715 H   0  0  0  0  0  0  0  0  0  0  0  0
  119.7141  124.6153   85.0473 H   0  0  0  0  0  0  0  0  0  0  0  0
  118.4065  126.2237   84.0497 H   0  0  0  0  0  0  0  0  0  0  0  0
  119.5355  125.6895   82.7586 H   0  0  0  0  0  0  0  0  0  0  0  0
  117.8339  125.1138   82.7586 H   0  0  0  0  0  0  0  0  0  0  0  0
  121.5787  123.5567   82.3314 H   0  0  0  0  0  0  0  0  0  0  0  0
  121.4363  124.6550   83.7586 H   0  0  0  0  0  0  0  0  0  0  0  0
  121.0415  122.9419   85.7976 H   0  0  0  0  0  0  0  0  0  0  0  0
  124.4601  122.0267   85.1220 H   0  0  0  0  0  0  0  0  0  0  0  0
  126.9431  122.6915   85.3176 H   0  0  0  0  0  0  0  0  0  0  0  0
  127.2422  121.0062   84.7727 H   0  0  0  0  0  0  0  0  0  0  0  0
  125.5719  121.6671   84.7727 H   0  0  0  0  0  0  0  0  0  0  0  0
  125.7263  121.5970   91.4154 H   0  0  0  0  0  0  0  0  0  0  0  0
  126.7740  122.5181   90.2837 H   0  0  0  0  0  0  0  0  0  0  0  0
  124.9979  122.7867   90.2837 H   0  0  0  0  0  0  0  0  0  0  0  0
  123.1514  121.5301   89.9070 H   0  0  0  0  0  0  0  0  0  0  0  0
  1  2  1  0
  2  3  1  0
  3  4  1  0
  4  5  1  0
  3  6  1  0
  6  7  1  0
  7  8  2  0
  7  9  1  0
  9 10  1  0
 10 11  2  0
 11 12  1  0
 12 13  1  0
 13 14  1  0
 12 15  2  0
 15 16  1  0
 16 17  1  0
 15 18  1  0
 18 19  2  0
 19 20  1  0
 20 21  3  0
 19 10  1  0
  1 22  1  0
  1 23  1  0
  1 24  1  0
  2 25  1  0
  2 26  1  0
  4 27  1  0
  4 28  1  0
  5 29  1  0
  5 30  1  0
  5 31  1  0
  6 32  1  0
  6 33  1  0
  9 34  1  0
 11 35  1  0
 14 36  1  0
 14 37  1  0
 14 38  1  0
 17 39  1  0
 17 40  1  0
 17 41  1  0
 18 42  1  0
M  END
>  <loss>  (12) 
0.32399600744247437

>  <score>  (12) 
7.017271518707275

$$$$
HVXKWUADFCSFOS-UHFFFAOYSA-N
     RDKit          3D

 42 42  0  0  0  0  0  0  0  0999 V2000
  119.2395  124.7191   81.5603 C   0  0  0  0  0  0  0  0  0  0  0  0
  118.6744  124.4695   82.9568 C   0  0  0  0  0  0  0  0  0  0  0  0
  119.0574  123.2062   83.6214 N   0  0  0  0  0  0  0  0  0  0  0  0
  118.2546  122.0444   83.2047 C   0  0  0  0  0  0  0  0  0  0  0  0
  116.8638  122.0087   83.8316 C   0  0  0  0  0  0  0  0  0  0  0  0
  120.5070  122.9078   83.4668 C   0  0  0  0  0  0  0  0  0  0  0  0
  121.2961  123.3303   84.7184 C   0  0  0  0  0  0  0  0  0  0  0  0
  121.6426  124.4951   84.8883 O   0  0  0  0  0  0  0  0  0  0  0  0
  121.5902  122.2497   85.5351 N   0  0  0  0  0  0  0  0  0  0  0  0
  122.6944  122.0581   86.3988 C   0  0  0  0  0  0  0  0  0  0  0  0
  124.0055  121.9208   85.9127 C   0  0  0  0  0  0  0  0  0  0  0  0
  125.0899  121.7283   86.7799 C   0  0  0  0  0  0  0  0  0  0  0  0
  126.3950  121.6109   86.3825 O   0  0  0  0  0  0  0  0  0  0  0  0
  126.6481  121.4638   84.9907 C   0  0  0  0  0  0  0  0  0  0  0  0
  124.8465  121.6477   88.1562 C   0  0  0  0  0  0  0  0  0  0  0  0
  125.8491  121.4920   89.0799 O   0  0  0  0  0  0  0  0  0  0  0  0
  125.3143  121.2707   90.3862 C   0  0  0  0  0  0  0  0  0  0  0  0
  123.5580  121.8053   88.6625 C   0  0  0  0  0  0  0  0  0  0  0  0
  122.4807  122.0004   87.7913 C   0  0  0  0  0  0  0  0  0  0  0  0
  121.1719  122.1411   88.3619 C   0  0  0  0  0  0  0  0  0  0  0  0
  120.1044  122.2553   88.8028 N   0  0  0  0  0  0  0  0  0  0  0  0
  120.2427  125.1621   81.6445 H   0  0  0  0  0  0  0  0  0  0  0  0
  119.3041  123.7658   81.0152 H   0  0  0  0  0  0  0  0  0  0  0  0
  118.5785  125.4090   81.0152 H   0  0  0  0  0  0  0  0  0  0  0  0
  119.0060  125.2970   83.6013 H   0  0  0  0  0  0  0  0  0  0  0  0
  117.5859  124.3983   82.8151 H   0  0  0  0  0  0  0  0  0  0  0  0
  118.1428  122.0728   82.1108 H   0  0  0  0  0  0  0  0  0  0  0  0
  118.7866  121.1443   83.5466 H   0  0  0  0  0  0  0  0  0  0  0  0
  116.9555  122.0110   84.9278 H   0  0  0  0  0  0  0  0  0  0  0  0
  116.2936  122.8925   83.5094 H   0  0  0  0  0  0  0  0  0  0  0  0
  116.3397  121.0968   83.5094 H   0  0  0  0  0  0  0  0  0  0  0  0
  120.6364  121.8270   83.3083 H   0  0  0  0  0  0  0  0  0  0  0  0
  120.8901  123.4736   82.6047 H   0  0  0  0  0  0  0  0  0  0  0  0
  120.9091  121.4774   85.5097 H   0  0  0  0  0  0  0  0  0  0  0  0
  124.1849  121.9653   84.8283 H   0  0  0  0  0  0  0  0  0  0  0  0
  127.5908  120.9158   84.8455 H   0  0  0  0  0  0  0  0  0  0  0  0
  125.8233  120.9043   84.5252 H   0  0  0  0  0  0  0  0  0  0  0  0
  126.7261  122.4573   84.5252 H   0  0  0  0  0  0  0  0  0  0  0  0
  126.0532  121.5765   91.1415 H   0  0  0  0  0  0  0  0  0  0  0  0
  124.3956  121.8626   90.5114 H   0  0  0  0  0  0  0  0  0  0  0  0
  125.0824  120.2028   90.5114 H   0  0  0  0  0  0  0  0  0  0  0  0
  123.3874  121.7762   89.7488 H   0  0  0  0  0  0  0  0  0  0  0  0
  1  2  1  0
  2  3  1  0
  3  4  1  0
  4  5  1  0
  3  6  1  0
  6  7  1  0
  7  8  2  0
  7  9  1  0
  9 10  1  0
 10 11  2  0
 11 12  1  0
 12 13  1  0
 13 14  1  0
 12 15  2  0
 15 16  1  0
 16 17  1  0
 15 18  1  0
 18 19  2  0
 19 20  1  0
 20 21  3  0
 19 10  1  0
  1 22  1  0
  1 23  1  0
  1 24  1  0
  2 25  1  0
  2 26  1  0
  4 27  1  0
  4 28  1  0
  5 29  1  0
  5 30  1  0
  5 31  1  0
  6 32  1  0
  6 33  1  0
  9 34  1  0
 11 35  1  0
 14 36  1  0
 14 37  1  0
 14 38  1  0
 17 39  1  0
 17 40  1  0
 17 41  1  0
 18 42  1  0
M  END
>  <loss>  (13) 
0.3199543058872223

>  <score>  (13) 
6.919256210327148

$$$$
HVXKWUADFCSFOS-UHFFFAOYSA-N
     RDKit          3D

 42 42  0  0  0  0  0  0  0  0999 V2000
  119.6383  124.6637   81.5390 C   0  0  0  0  0  0  0  0  0  0  0  0
  118.7782  124.3474   82.7598 C   0  0  0  0  0  0  0  0  0  0  0  0
  119.1495  123.1430   83.5196 N   0  0  0  0  0  0  0  0  0  0  0  0
  118.3076  121.9680   83.2552 C   0  0  0  0  0  0  0  0  0  0  0  0
  116.9022  122.0614   83.8417 C   0  0  0  0  0  0  0  0  0  0  0  0
  120.5924  122.8527   83.3803 C   0  0  0  0  0  0  0  0  0  0  0  0
  121.3913  123.3328   84.6047 C   0  0  0  0  0  0  0  0  0  0  0  0
  121.9071  124.4465   84.6392 O   0  0  0  0  0  0  0  0  0  0  0  0
  121.4457  122.3799   85.6157 N   0  0  0  0  0  0  0  0  0  0  0  0
  122.5643  122.0393   86.4233 C   0  0  0  0  0  0  0  0  0  0  0  0
  123.8220  121.7522   85.8824 C   0  0  0  0  0  0  0  0  0  0  0  0
  124.9020  121.4169   86.7099 C   0  0  0  0  0  0  0  0  0  0  0  0
  126.1071  121.1684   86.1060 O   0  0  0  0  0  0  0  0  0  0  0  0
  126.8929  122.3615   86.0819 C   0  0  0  0  0  0  0  0  0  0  0  0
  124.7322  121.3080   88.0916 C   0  0  0  0  0  0  0  0  0  0  0  0
  125.7108  120.9718   88.9873 O   0  0  0  0  0  0  0  0  0  0  0  0
  125.6737  121.7321   90.1946 C   0  0  0  0  0  0  0  0  0  0  0  0
  123.4911  121.6116   88.6480 C   0  0  0  0  0  0  0  0  0  0  0  0
  122.4107  121.9671   87.8255 C   0  0  0  0  0  0  0  0  0  0  0  0
  121.1548  122.2592   88.4516 C   0  0  0  0  0  0  0  0  0  0  0  0
  120.1133  122.5044   88.9018 N   0  0  0  0  0  0  0  0  0  0  0  0
  120.6233  125.0260   81.8684 H   0  0  0  0  0  0  0  0  0  0  0  0
  119.7657  123.7536   80.9344 H   0  0  0  0  0  0  0  0  0  0  0  0
  119.1457  125.4395   80.9344 H   0  0  0  0  0  0  0  0  0  0  0  0
  118.8362  125.2072   83.4435 H   0  0  0  0  0  0  0  0  0  0  0  0
  117.7699  124.1496   82.3672 H   0  0  0  0  0  0  0  0  0  0  0  0
  118.2194  121.8449   82.1656 H   0  0  0  0  0  0  0  0  0  0  0  0
  118.7974  121.1119   83.7422 H   0  0  0  0  0  0  0  0  0  0  0  0
  116.9623  122.0574   84.9400 H   0  0  0  0  0  0  0  0  0  0  0  0
  116.4251  122.9932   83.5039 H   0  0  0  0  0  0  0  0  0  0  0  0
  116.3060  121.2009   83.5039 H   0  0  0  0  0  0  0  0  0  0  0  0
  120.7283  121.7668   83.2695 H   0  0  0  0  0  0  0  0  0  0  0  0
  120.9660  123.3894   82.4957 H   0  0  0  0  0  0  0  0  0  0  0  0
  120.5753  121.8612   85.8006 H   0  0  0  0  0  0  0  0  0  0  0  0
  123.9652  121.7901   84.7924 H   0  0  0  0  0  0  0  0  0  0  0  0
  127.1042  122.6823   87.1126 H   0  0  0  0  0  0  0  0  0  0  0  0
  127.8398  122.1663   85.5572 H   0  0  0  0  0  0  0  0  0  0  0  0
  126.3397  123.1544   85.5572 H   0  0  0  0  0  0  0  0  0  0  0  0
  125.7069  121.0513   91.0579 H   0  0  0  0  0  0  0  0  0  0  0  0
  126.5399  122.4093   90.2282 H   0  0  0  0  0  0  0  0  0  0  0  0
  124.7458  122.3218   90.2282 H   0  0  0  0  0  0  0  0  0  0  0  0
  123.3572  121.5723   89.7391 H   0  0  0  0  0  0  0  0  0  0  0  0
  1  2  1  0
  2  3  1  0
  3  4  1  0
  4  5  1  0
  3  6  1  0
  6  7  1  0
  7  8  2  0
  7  9  1  0
  9 10  1  0
 10 11  2  0
 11 12  1  0
 12 13  1  0
 13 14  1  0
 12 15  2  0
 15 16  1  0
 16 17  1  0
 15 18  1  0
 18 19  2  0
 19 20  1  0
 20 21  3  0
 19 10  1  0
  1 22  1  0
  1 23  1  0
  1 24  1  0
  2 25  1  0
  2 26  1  0
  4 27  1  0
  4 28  1  0
  5 29  1  0
  5 30  1  0
  5 31  1  0
  6 32  1  0
  6 33  1  0
  9 34  1  0
 11 35  1  0
 14 36  1  0
 14 37  1  0
 14 38  1  0
 17 39  1  0
 17 40  1  0
 17 41  1  0
 18 42  1  0
M  END
>  <loss>  (14) 
0.30997052788734436

>  <score>  (14) 
6.6521477699279785

$$$$
HVXKWUADFCSFOS-UHFFFAOYSA-N
     RDKit          3D

 42 42  0  0  0  0  0  0  0  0999 V2000
  119.5772  125.7529   82.5666 C   0  0  0  0  0  0  0  0  0  0  0  0
  119.9725  124.4283   81.9278 C   0  0  0  0  0  0  0  0  0  0  0  0
  119.9153  123.2224   82.7696 N   0  0  0  0  0  0  0  0  0  0  0  0
  118.6154  122.5344   82.7299 C   0  0  0  0  0  0  0  0  0  0  0  0
  117.4826  123.1059   83.5759 C   0  0  0  0  0  0  0  0  0  0  0  0
  120.4229  123.4371   84.1462 C   0  0  0  0  0  0  0  0  0  0  0  0
  121.7917  122.7727   84.3326 C   0  0  0  0  0  0  0  0  0  0  0  0
  122.7440  123.0175   83.6012 O   0  0  0  0  0  0  0  0  0  0  0  0
  121.7944  121.8885   85.4041 N   0  0  0  0  0  0  0  0  0  0  0  0
  122.7831  121.8201   86.4067 C   0  0  0  0  0  0  0  0  0  0  0  0
  124.0841  121.5458   85.9623 C   0  0  0  0  0  0  0  0  0  0  0  0
  125.1450  121.4534   86.8659 C   0  0  0  0  0  0  0  0  0  0  0  0
  126.3728  121.1722   86.3340 O   0  0  0  0  0  0  0  0  0  0  0  0
  126.4353  121.4649   84.9372 C   0  0  0  0  0  0  0  0  0  0  0  0
  124.9215  121.6840   88.2240 C   0  0  0  0  0  0  0  0  0  0  0  0
  125.9253  121.6295   89.1526 O   0  0  0  0  0  0  0  0  0  0  0  0
  125.3938  121.2875   90.4341 C   0  0  0  0  0  0  0  0  0  0  0  0
  123.6248  121.8956   88.6875 C   0  0  0  0  0  0  0  0  0  0  0  0
  122.5443  121.9514   87.7903 C   0  0  0  0  0  0  0  0  0  0  0  0
  121.2286  121.9768   88.3633 C   0  0  0  0  0  0  0  0  0  0  0  0
  120.1926  121.9207   88.8864 N   0  0  0  0  0  0  0  0  0  0  0  0
  119.6064  125.6550   83.6619 H   0  0  0  0  0  0  0  0  0  0  0  0
  120.2804  126.5372   82.2497 H   0  0  0  0  0  0  0  0  0  0  0  0
  118.5591  126.0234   82.2497 H   0  0  0  0  0  0  0  0  0  0  0  0
  119.3032  124.2635   81.0706 H   0  0  0  0  0  0  0  0  0  0  0  0
  121.0376  124.5450   81.6787 H   0  0  0  0  0  0  0  0  0  0  0  0
  118.2758  122.5346   81.6837 H   0  0  0  0  0  0  0  0  0  0  0  0
  118.8130  121.5434   83.1645 H   0  0  0  0  0  0  0  0  0  0  0  0
  117.7239  122.9842   84.6422 H   0  0  0  0  0  0  0  0  0  0  0  0
  117.3580  124.1748   83.3479 H   0  0  0  0  0  0  0  0  0  0  0  0
  116.5489  122.5711   83.3479 H   0  0  0  0  0  0  0  0  0  0  0  0
  120.5184  124.5173   84.3307 H   0  0  0  0  0  0  0  0  0  0  0  0
  119.7137  122.9879   84.8570 H   0  0  0  0  0  0  0  0  0  0  0  0
  121.0077  121.2271   85.4718 H   0  0  0  0  0  0  0  0  0  0  0  0
  124.2718  121.4015   84.8881 H   0  0  0  0  0  0  0  0  0  0  0  0
  126.6631  122.5318   84.7959 H   0  0  0  0  0  0  0  0  0  0  0  0
  127.2238  120.8566   84.4700 H   0  0  0  0  0  0  0  0  0  0  0  0
  125.4671  121.2318   84.4700 H   0  0  0  0  0  0  0  0  0  0  0  0
  126.0395  121.7031   91.2217 H   0  0  0  0  0  0  0  0  0  0  0  0
  124.3803  121.7033   90.5336 H   0  0  0  0  0  0  0  0  0  0  0  0
  125.3524  120.1928   90.5336 H   0  0  0  0  0  0  0  0  0  0  0  0
  123.4449  122.0200   89.7655 H   0  0  0  0  0  0  0  0  0  0  0  0
  1  2  1  0
  2  3  1  0
  3  4  1  0
  4  5  1  0
  3  6  1  0
  6  7  1  0
  7  8  2  0
  7  9  1  0
  9 10  1  0
 10 11  2  0
 11 12  1  0
 12 13  1  0
 13 14  1  0
 12 15  2  0
 15 16  1  0
 16 17  1  0
 15 18  1  0
 18 19  2  0
 19 20  1  0
 20 21  3  0
 19 10  1  0
  1 22  1  0
  1 23  1  0
  1 24  1  0
  2 25  1  0
  2 26  1  0
  4 27  1  0
  4 28  1  0
  5 29  1  0
  5 30  1  0
  5 31  1  0
  6 32  1  0
  6 33  1  0
  9 34  1  0
 11 35  1  0
 14 36  1  0
 14 37  1  0
 14 38  1  0
 17 39  1  0
 17 40  1  0
 17 41  1  0
 18 42  1  0
M  END
>  <loss>  (15) 
0.30560800433158875

>  <score>  (15) 
6.532361030578613

$$$$
HVXKWUADFCSFOS-UHFFFAOYSA-N
     RDKit          3D

 42 42  0  0  0  0  0  0  0  0999 V2000
  119.6222  124.1180   81.1570 C   0  0  0  0  0  0  0  0  0  0  0  0
  119.3420  124.3511   82.6398 C   0  0  0  0  0  0  0  0  0  0  0  0
  119.3231  123.1609   83.5159 N   0  0  0  0  0  0  0  0  0  0  0  0
  118.0911  122.3612   83.4112 C   0  0  0  0  0  0  0  0  0  0  0  0
  116.8152  123.1913   83.5188 C   0  0  0  0  0  0  0  0  0  0  0  0
  120.5144  122.2935   83.3099 C   0  0  0  0  0  0  0  0  0  0  0  0
  121.6895  122.7474   84.1937 C   0  0  0  0  0  0  0  0  0  0  0  0
  122.5551  123.5022   83.7619 O   0  0  0  0  0  0  0  0  0  0  0  0
  121.6534  122.1571   85.4474 N   0  0  0  0  0  0  0  0  0  0  0  0
  122.6804  122.0536   86.4150 C   0  0  0  0  0  0  0  0  0  0  0  0
  124.0309  121.9077   86.0556 C   0  0  0  0  0  0  0  0  0  0  0  0
  125.0379  121.8031   87.0251 C   0  0  0  0  0  0  0  0  0  0  0  0
  126.3742  121.6836   86.7517 O   0  0  0  0  0  0  0  0  0  0  0  0
  126.7631  121.6211   85.3851 C   0  0  0  0  0  0  0  0  0  0  0  0
  124.6761  121.8204   88.3775 C   0  0  0  0  0  0  0  0  0  0  0  0
  125.5962  121.7551   89.3932 O   0  0  0  0  0  0  0  0  0  0  0  0
  125.5855  120.4683   90.0141 C   0  0  0  0  0  0  0  0  0  0  0  0
  123.3462  121.9886   88.7574 C   0  0  0  0  0  0  0  0  0  0  0  0
  122.3465  122.0957   87.7843 C   0  0  0  0  0  0  0  0  0  0  0  0
  120.9910  122.2513   88.2277 C   0  0  0  0  0  0  0  0  0  0  0  0
  119.8876  122.3759   88.5649 N   0  0  0  0  0  0  0  0  0  0  0  0
  120.4639  123.4182   81.0485 H   0  0  0  0  0  0  0  0  0  0  0  0
  118.7281  123.6935   80.6771 H   0  0  0  0  0  0  0  0  0  0  0  0
  119.8766  125.0746   80.6771 H   0  0  0  0  0  0  0  0  0  0  0  0
  120.1181  125.0310   83.0210 H   0  0  0  0  0  0  0  0  0  0  0  0
  118.3169  124.7485   82.6770 H   0  0  0  0  0  0  0  0  0  0  0  0
  118.0912  121.8474   82.4386 H   0  0  0  0  0  0  0  0  0  0  0  0
  118.0905  121.6563   84.2556 H   0  0  0  0  0  0  0  0  0  0  0  0
  116.5699  123.3509   84.5791 H   0  0  0  0  0  0  0  0  0  0  0  0
  116.9678  124.1636   83.0274 H   0  0  0  0  0  0  0  0  0  0  0  0
  115.9882  122.6579   83.0274 H   0  0  0  0  0  0  0  0  0  0  0  0
  120.2522  121.2563   83.5656 H   0  0  0  0  0  0  0  0  0  0  0  0
  120.8215  122.3661   82.2561 H   0  0  0  0  0  0  0  0  0  0  0  0
  120.7521  121.7344   85.7117 H   0  0  0  0  0  0  0  0  0  0  0  0
  124.3037  121.8749   84.9905 H   0  0  0  0  0  0  0  0  0  0  0  0
  127.8472  121.4468   85.3200 H   0  0  0  0  0  0  0  0  0  0  0  0
  126.2288  120.7973   84.8892 H   0  0  0  0  0  0  0  0  0  0  0  0
  126.5139  122.5708   84.8892 H   0  0  0  0  0  0  0  0  0  0  0  0
  125.5865  120.5886   91.1075 H   0  0  0  0  0  0  0  0  0  0  0  0
  124.6828  119.9202   89.7064 H   0  0  0  0  0  0  0  0  0  0  0  0
  126.4790  119.9053   89.7064 H   0  0  0  0  0  0  0  0  0  0  0  0
  123.0817  122.0372   89.8240 H   0  0  0  0  0  0  0  0  0  0  0  0
  1  2  1  0
  2  3  1  0
  3  4  1  0
  4  5  1  0
  3  6  1  0
  6  7  1  0
  7  8  2  0
  7  9  1  0
  9 10  1  0
 10 11  2  0
 11 12  1  0
 12 13  1  0
 13 14  1  0
 12 15  2  0
 15 16  1  0
 16 17  1  0
 15 18  1  0
 18 19  2  0
 19 20  1  0
 20 21  3  0
 19 10  1  0
  1 22  1  0
  1 23  1  0
  1 24  1  0
  2 25  1  0
  2 26  1  0
  4 27  1  0
  4 28  1  0
  5 29  1  0
  5 30  1  0
  5 31  1  0
  6 32  1  0
  6 33  1  0
  9 34  1  0
 11 35  1  0
 14 36  1  0
 14 37  1  0
 14 38  1  0
 17 39  1  0
 17 40  1  0
 17 41  1  0
 18 42  1  0
M  END
>  <loss>  (16) 
0.2996765375137329

>  <score>  (16) 
6.371077060699463

$$$$
HVXKWUADFCSFOS-UHFFFAOYSA-N
     RDKit          3D

 42 42  0  0  0  0  0  0  0  0999 V2000
  120.5810  123.9374   80.8558 C   0  0  0  0  0  0  0  0  0  0  0  0
  119.9835  124.5141   82.1372 C   0  0  0  0  0  0  0  0  0  0  0  0
  119.7102  123.5661   83.2377 N   0  0  0  0  0  0  0  0  0  0  0  0
  118.3227  123.0745   83.2723 C   0  0  0  0  0  0  0  0  0  0  0  0
  117.3273  124.0975   83.8118 C   0  0  0  0  0  0  0  0  0  0  0  0
  120.6588  122.4198   83.2396 C   0  0  0  0  0  0  0  0  0  0  0  0
  121.9407  122.7628   84.0187 C   0  0  0  0  0  0  0  0  0  0  0  0
  122.8923  123.3082   83.4684 O   0  0  0  0  0  0  0  0  0  0  0  0
  121.8799  122.3289   85.3337 N   0  0  0  0  0  0  0  0  0  0  0  0
  122.9345  122.1110   86.2513 C   0  0  0  0  0  0  0  0  0  0  0  0
  124.2638  121.9364   85.8310 C   0  0  0  0  0  0  0  0  0  0  0  0
  125.2985  121.7181   86.7511 C   0  0  0  0  0  0  0  0  0  0  0  0
  126.6179  121.5639   86.4190 O   0  0  0  0  0  0  0  0  0  0  0  0
  126.9832  121.7740   85.0607 C   0  0  0  0  0  0  0  0  0  0  0  0
  124.9854  121.6496   88.1140 C   0  0  0  0  0  0  0  0  0  0  0  0
  125.9367  121.4706   89.0865 O   0  0  0  0  0  0  0  0  0  0  0  0
  125.3475  121.0048   90.3019 C   0  0  0  0  0  0  0  0  0  0  0  0
  123.6783  121.8440   88.5556 C   0  0  0  0  0  0  0  0  0  0  0  0
  122.6509  122.0647   87.6318 C   0  0  0  0  0  0  0  0  0  0  0  0
  121.3200  122.2430   88.1367 C   0  0  0  0  0  0  0  0  0  0  0  0
  120.2356  122.3878   88.5240 N   0  0  0  0  0  0  0  0  0  0  0  0
  121.3507  123.1946   81.1120 H   0  0  0  0  0  0  0  0  0  0  0  0
  119.7877  123.4549   80.2661 H   0  0  0  0  0  0  0  0  0  0  0  0
  121.0351  124.7474   80.2661 H   0  0  0  0  0  0  0  0  0  0  0  0
  120.6845  125.2713   82.5183 H   0  0  0  0  0  0  0  0  0  0  0  0
  118.9968  124.9008   81.8426 H   0  0  0  0  0  0  0  0  0  0  0  0
  118.0237  122.8040   82.2488 H   0  0  0  0  0  0  0  0  0  0  0  0
  118.3021  122.2121   83.9548 H   0  0  0  0  0  0  0  0  0  0  0  0
  117.3438  124.0805   84.9115 H   0  0  0  0  0  0  0  0  0  0  0  0
  117.6039  125.1011   83.4564 H   0  0  0  0  0  0  0  0  0  0  0  0
  116.3165  123.8484   83.4564 H   0  0  0  0  0  0  0  0  0  0  0  0
  120.1733  121.5524   83.7107 H   0  0  0  0  0  0  0  0  0  0  0  0
  120.9330  122.1914   82.1990 H   0  0  0  0  0  0  0  0  0  0  0  0
  120.9338  122.1382   85.6935 H   0  0  0  0  0  0  0  0  0  0  0  0
  124.4976  121.9717   84.7567 H   0  0  0  0  0  0  0  0  0  0  0  0
  127.9360  122.3220   85.0177 H   0  0  0  0  0  0  0  0  0  0  0  0
  127.0958  120.8027   84.5568 H   0  0  0  0  0  0  0  0  0  0  0  0
  126.2003  122.3599   84.5568 H   0  0  0  0  0  0  0  0  0  0  0  0
  125.8883  121.4324   91.1590 H   0  0  0  0  0  0  0  0  0  0  0  0
  124.2932  121.3162   90.3413 H   0  0  0  0  0  0  0  0  0  0  0  0
  125.4073  119.9071   90.3413 H   0  0  0  0  0  0  0  0  0  0  0  0
  123.4537  121.8239   89.6323 H   0  0  0  0  0  0  0  0  0  0  0  0
  1  2  1  0
  2  3  1  0
  3  4  1  0
  4  5  1  0
  3  6  1  0
  6  7  1  0
  7  8  2  0
  7  9  1  0
  9 10  1  0
 10 11  2  0
 11 12  1  0
 12 13  1  0
 13 14  1  0
 12 15  2  0
 15 16  1  0
 16 17  1  0
 15 18  1  0
 18 19  2  0
 19 20  1  0
 20 21  3  0
 19 10  1  0
  1 22  1  0
  1 23  1  0
  1 24  1  0
  2 25  1  0
  2 26  1  0
  4 27  1  0
  4 28  1  0
  5 29  1  0
  5 30  1  0
  5 31  1  0
  6 32  1  0
  6 33  1  0
  9 34  1  0
 11 35  1  0
 14 36  1  0
 14 37  1  0
 14 38  1  0
 17 39  1  0
 17 40  1  0
 17 41  1  0
 18 42  1  0
M  END
>  <loss>  (17) 
0.2840335965156555

>  <score>  (17) 
6.275650978088379

$$$$
HVXKWUADFCSFOS-UHFFFAOYSA-N
     RDKit          3D

 42 42  0  0  0  0  0  0  0  0999 V2000
  119.7330  124.6485   81.6156 C   0  0  0  0  0  0  0  0  0  0  0  0
  119.6665  124.4338   83.1259 C   0  0  0  0  0  0  0  0  0  0  0  0
  119.4794  123.0467   83.6004 N   0  0  0  0  0  0  0  0  0  0  0  0
  118.2070  122.4373   83.1790 C   0  0  0  0  0  0  0  0  0  0  0  0
  117.0037  123.3601   83.3499 C   0  0  0  0  0  0  0  0  0  0  0  0
  120.6177  122.1660   83.2226 C   0  0  0  0  0  0  0  0  0  0  0  0
  121.8776  122.5092   84.0368 C   0  0  0  0  0  0  0  0  0  0  0  0
  122.8534  123.0322   83.5077 O   0  0  0  0  0  0  0  0  0  0  0  0
  121.7683  122.1021   85.3572 N   0  0  0  0  0  0  0  0  0  0  0  0
  122.7732  122.0103   86.3490 C   0  0  0  0  0  0  0  0  0  0  0  0
  124.1293  121.8411   86.0222 C   0  0  0  0  0  0  0  0  0  0  0  0
  125.1142  121.7484   87.0154 C   0  0  0  0  0  0  0  0  0  0  0  0
  126.4546  121.6078   86.7737 O   0  0  0  0  0  0  0  0  0  0  0  0
  126.8820  121.6079   85.4173 C   0  0  0  0  0  0  0  0  0  0  0  0
  124.7240  121.8017   88.3589 C   0  0  0  0  0  0  0  0  0  0  0  0
  125.6215  121.7504   89.3955 O   0  0  0  0  0  0  0  0  0  0  0  0
  125.4850  120.5344   90.1333 C   0  0  0  0  0  0  0  0  0  0  0  0
  123.3882  121.9934   88.7060 C   0  0  0  0  0  0  0  0  0  0  0  0
  122.4108  122.0884   87.7094 C   0  0  0  0  0  0  0  0  0  0  0  0
  121.0481  122.2694   88.1197 C   0  0  0  0  0  0  0  0  0  0  0  0
  119.9392  122.4141   88.4301 N   0  0  0  0  0  0  0  0  0  0  0  0
  120.0523  125.6800   81.4055 H   0  0  0  0  0  0  0  0  0  0  0  0
  120.4553  123.9445   81.1766 H   0  0  0  0  0  0  0  0  0  0  0  0
  118.7393  124.4757   81.1766 H   0  0  0  0  0  0  0  0  0  0  0  0
  120.6079  124.8070   83.5555 H   0  0  0  0  0  0  0  0  0  0  0  0
  118.7627  124.9703   83.4504 H   0  0  0  0  0  0  0  0  0  0  0  0
  118.2873  122.1632   82.1167 H   0  0  0  0  0  0  0  0  0  0  0  0
  118.0380  121.5626   83.8242 H   0  0  0  0  0  0  0  0  0  0  0  0
  116.8067  123.5111   84.4215 H   0  0  0  0  0  0  0  0  0  0  0  0
  117.2150  124.3299   82.8757 H   0  0  0  0  0  0  0  0  0  0  0  0
  116.1219  122.9045   82.8757 H   0  0  0  0  0  0  0  0  0  0  0  0
  120.3406  121.1188   83.4138 H   0  0  0  0  0  0  0  0  0  0  0  0
  120.8387  122.3188   82.1559 H   0  0  0  0  0  0  0  0  0  0  0  0
  120.8224  121.8280   85.6590 H   0  0  0  0  0  0  0  0  0  0  0  0
  124.4244  121.7800   84.9643 H   0  0  0  0  0  0  0  0  0  0  0  0
  127.9814  121.6081   85.3792 H   0  0  0  0  0  0  0  0  0  0  0  0
  126.4978  120.7097   84.9117 H   0  0  0  0  0  0  0  0  0  0  0  0
  126.4975  122.5059   84.9117 H   0  0  0  0  0  0  0  0  0  0  0  0
  125.5097  120.7547   91.2108 H   0  0  0  0  0  0  0  0  0  0  0  0
  124.5276  120.0565   89.8786 H   0  0  0  0  0  0  0  0  0  0  0  0
  126.3127  119.8561   89.8786 H   0  0  0  0  0  0  0  0  0  0  0  0
  123.1017  122.0702   89.7653 H   0  0  0  0  0  0  0  0  0  0  0  0
  1  2  1  0
  2  3  1  0
  3  4  1  0
  4  5  1  0
  3  6  1  0
  6  7  1  0
  7  8  2  0
  7  9  1  0
  9 10  1  0
 10 11  2  0
 11 12  1  0
 12 13  1  0
 13 14  1  0
 12 15  2  0
 15 16  1  0
 16 17  1  0
 15 18  1  0
 18 19  2  0
 19 20  1  0
 20 21  3  0
 19 10  1  0
  1 22  1  0
  1 23  1  0
  1 24  1  0
  2 25  1  0
  2 26  1  0
  4 27  1  0
  4 28  1  0
  5 29  1  0
  5 30  1  0
  5 31  1  0
  6 32  1  0
  6 33  1  0
  9 34  1  0
 11 35  1  0
 14 36  1  0
 14 37  1  0
 14 38  1  0
 17 39  1  0
 17 40  1  0
 17 41  1  0
 18 42  1  0
M  END
>  <loss>  (18) 
0.2908523380756378

>  <score>  (18) 
6.282063007354736

$$$$
HVXKWUADFCSFOS-UHFFFAOYSA-N
     RDKit          3D

 42 42  0  0  0  0  0  0  0  0999 V2000
  120.2416  123.3085   80.9869 C   0  0  0  0  0  0  0  0  0  0  0  0
  120.0195  122.3790   82.1725 C   0  0  0  0  0  0  0  0  0  0  0  0
  119.7046  122.9954   83.4714 N   0  0  0  0  0  0  0  0  0  0  0  0
  118.3483  123.5608   83.5445 C   0  0  0  0  0  0  0  0  0  0  0  0
  118.1885  125.0581   83.3034 C   0  0  0  0  0  0  0  0  0  0  0  0
  120.7538  123.9248   83.9552 C   0  0  0  0  0  0  0  0  0  0  0  0
  122.0248  123.1595   84.3406 C   0  0  0  0  0  0  0  0  0  0  0  0
  123.0707  123.2667   83.7111 O   0  0  0  0  0  0  0  0  0  0  0  0
  121.8260  122.3589   85.4585 N   0  0  0  0  0  0  0  0  0  0  0  0
  122.7842  122.0967   86.4587 C   0  0  0  0  0  0  0  0  0  0  0  0
  124.1039  121.9399   86.0127 C   0  0  0  0  0  0  0  0  0  0  0  0
  125.1378  121.6761   86.9137 C   0  0  0  0  0  0  0  0  0  0  0  0
  126.3873  121.5297   86.3781 O   0  0  0  0  0  0  0  0  0  0  0  0
  126.4877  120.3681   85.5527 C   0  0  0  0  0  0  0  0  0  0  0  0
  124.8673  121.6147   88.2814 C   0  0  0  0  0  0  0  0  0  0  0  0
  125.8425  121.3818   89.2128 O   0  0  0  0  0  0  0  0  0  0  0  0
  125.6819  122.2629   90.3262 C   0  0  0  0  0  0  0  0  0  0  0  0
  123.5525  121.7062   88.7332 C   0  0  0  0  0  0  0  0  0  0  0  0
  122.4996  121.9327   87.8301 C   0  0  0  0  0  0  0  0  0  0  0  0
  121.1664  121.8190   88.3495 C   0  0  0  0  0  0  0  0  0  0  0  0
  120.1160  121.6401   88.8129 N   0  0  0  0  0  0  0  0  0  0  0  0
  120.4827  124.3177   81.3523 H   0  0  0  0  0  0  0  0  0  0  0  0
  121.0748  122.9310   80.3760 H   0  0  0  0  0  0  0  0  0  0  0  0
  119.3277  123.3484   80.3760 H   0  0  0  0  0  0  0  0  0  0  0  0
  119.1852  121.7101   81.9146 H   0  0  0  0  0  0  0  0  0  0  0  0
  120.9901  121.8847   82.3257 H   0  0  0  0  0  0  0  0  0  0  0  0
  117.7349  123.0403   82.7943 H   0  0  0  0  0  0  0  0  0  0  0  0
  118.0432  123.4146   84.5912 H   0  0  0  0  0  0  0  0  0  0  0  0
  118.1326  125.5812   84.2695 H   0  0  0  0  0  0  0  0  0  0  0  0
  119.0518  125.4319   82.7334 H   0  0  0  0  0  0  0  0  0  0  0  0
  117.2657  125.2413   82.7334 H   0  0  0  0  0  0  0  0  0  0  0  0
  120.9938  124.6439   83.1580 H   0  0  0  0  0  0  0  0  0  0  0  0
  120.3758  124.4504   84.8445 H   0  0  0  0  0  0  0  0  0  0  0  0
  120.9004  121.9197   85.5654 H   0  0  0  0  0  0  0  0  0  0  0  0
  124.3280  122.0258   84.9392 H   0  0  0  0  0  0  0  0  0  0  0  0
  126.5650  119.4729   86.1874 H   0  0  0  0  0  0  0  0  0  0  0  0
  125.5928  120.2911   84.9176 H   0  0  0  0  0  0  0  0  0  0  0  0
  127.3824  120.4457   84.9176 H   0  0  0  0  0  0  0  0  0  0  0  0
  125.7856  121.6939   91.2619 H   0  0  0  0  0  0  0  0  0  0  0  0
  126.4518  123.0475   90.2869 H   0  0  0  0  0  0  0  0  0  0  0  0
  124.6846  122.7254   90.2869 H   0  0  0  0  0  0  0  0  0  0  0  0
  123.3365  121.6001   89.8066 H   0  0  0  0  0  0  0  0  0  0  0  0
  1  2  1  0
  2  3  1  0
  3  4  1  0
  4  5  1  0
  3  6  1  0
  6  7  1  0
  7  8  2  0
  7  9  1  0
  9 10  1  0
 10 11  2  0
 11 12  1  0
 12 13  1  0
 13 14  1  0
 12 15  2  0
 15 16  1  0
 16 17  1  0
 15 18  1  0
 18 19  2  0
 19 20  1  0
 20 21  3  0
 19 10  1  0
  1 22  1  0
  1 23  1  0
  1 24  1  0
  2 25  1  0
  2 26  1  0
  4 27  1  0
  4 28  1  0
  5 29  1  0
  5 30  1  0
  5 31  1  0
  6 32  1  0
  6 33  1  0
  9 34  1  0
 11 35  1  0
 14 36  1  0
 14 37  1  0
 14 38  1  0
 17 39  1  0
 17 40  1  0
 17 41  1  0
 18 42  1  0
M  END
>  <loss>  (19) 
0.31290918588638306

>  <score>  (19) 
6.249603271484375

$$$$
HVXKWUADFCSFOS-UHFFFAOYSA-N
     RDKit          3D

 42 42  0  0  0  0  0  0  0  0999 V2000
  117.7716  122.8233   83.8741 C   0  0  0  0  0  0  0  0  0  0  0  0
  118.4644  122.9542   82.5203 C   0  0  0  0  0  0  0  0  0  0  0  0
  119.9273  123.1114   82.5534 N   0  0  0  0  0  0  0  0  0  0  0  0
  120.3907  124.4583   82.9151 C   0  0  0  0  0  0  0  0  0  0  0  0
  119.5997  125.5877   82.2619 C   0  0  0  0  0  0  0  0  0  0  0  0
  120.5553  122.0538   83.3737 C   0  0  0  0  0  0  0  0  0  0  0  0
  121.6139  122.6283   84.3312 C   0  0  0  0  0  0  0  0  0  0  0  0
  122.3241  123.5770   84.0098 O   0  0  0  0  0  0  0  0  0  0  0  0
  121.6536  121.9591   85.5494 N   0  0  0  0  0  0  0  0  0  0  0  0
  122.7532  121.8560   86.4436 C   0  0  0  0  0  0  0  0  0  0  0  0
  124.0539  121.5835   86.0070 C   0  0  0  0  0  0  0  0  0  0  0  0
  125.1136  121.4859   86.9184 C   0  0  0  0  0  0  0  0  0  0  0  0
  126.3622  121.2361   86.4111 O   0  0  0  0  0  0  0  0  0  0  0  0
  126.6385  122.1365   85.3366 C   0  0  0  0  0  0  0  0  0  0  0  0
  124.8845  121.6041   88.2908 C   0  0  0  0  0  0  0  0  0  0  0  0
  125.8400  121.5090   89.2660 O   0  0  0  0  0  0  0  0  0  0  0  0
  125.3840  120.8745   90.4604 C   0  0  0  0  0  0  0  0  0  0  0  0
  123.5983  121.8968   88.7404 C   0  0  0  0  0  0  0  0  0  0  0  0
  122.5364  122.0151   87.8302 C   0  0  0  0  0  0  0  0  0  0  0  0
  121.2328  122.3074   88.3499 C   0  0  0  0  0  0  0  0  0  0  0  0
  120.1551  122.5408   88.7125 N   0  0  0  0  0  0  0  0  0  0  0  0
  118.5090  122.9626   84.6784 H   0  0  0  0  0  0  0  0  0  0  0  0
  116.9866  123.5891   83.9598 H   0  0  0  0  0  0  0  0  0  0  0  0
  117.3200  121.8240   83.9598 H   0  0  0  0  0  0  0  0  0  0  0  0
  118.2369  122.0494   81.9376 H   0  0  0  0  0  0  0  0  0  0  0  0
  118.0775  123.8847   82.0794 H   0  0  0  0  0  0  0  0  0  0  0  0
  120.3124  124.5686   84.0067 H   0  0  0  0  0  0  0  0  0  0  0  0
  121.4252  124.5451   82.5513 H   0  0  0  0  0  0  0  0  0  0  0  0
  119.1550  126.2228   83.0422 H   0  0  0  0  0  0  0  0  0  0  0  0
  120.2726  126.1925   81.6363 H   0  0  0  0  0  0  0  0  0  0  0  0
  118.8013  125.1621   81.6363 H   0  0  0  0  0  0  0  0  0  0  0  0
  119.7755  121.5511   83.9647 H   0  0  0  0  0  0  0  0  0  0  0  0
  121.0546  121.3458   82.6959 H   0  0  0  0  0  0  0  0  0  0  0  0
  120.7864  121.4834   85.8366 H   0  0  0  0  0  0  0  0  0  0  0  0
  124.2475  121.4438   84.9332 H   0  0  0  0  0  0  0  0  0  0  0  0
  126.9381  123.1131   85.7445 H   0  0  0  0  0  0  0  0  0  0  0  0
  127.4537  121.7313   84.7191 H   0  0  0  0  0  0  0  0  0  0  0  0
  125.7364  122.2582   84.7191 H   0  0  0  0  0  0  0  0  0  0  0  0
  125.7733  121.4163   91.3350 H   0  0  0  0  0  0  0  0  0  0  0  0
  124.2842  120.8833   90.4833 H   0  0  0  0  0  0  0  0  0  0  0  0
  125.7429  119.8350   90.4833 H   0  0  0  0  0  0  0  0  0  0  0  0
  123.4140  122.0360   89.8159 H   0  0  0  0  0  0  0  0  0  0  0  0
  1  2  1  0
  2  3  1  0
  3  4  1  0
  4  5  1  0
  3  6  1  0
  6  7  1  0
  7  8  2  0
  7  9  1  0
  9 10  1  0
 10 11  2  0
 11 12  1  0
 12 13  1  0
 13 14  1  0
 12 15  2  0
 15 16  1  0
 16 17  1  0
 15 18  1  0
 18 19  2  0
 19 20  1  0
 20 21  3  0
 19 10  1  0
  1 22  1  0
  1 23  1  0
  1 24  1  0
  2 25  1  0
  2 26  1  0
  4 27  1  0
  4 28  1  0
  5 29  1  0
  5 30  1  0
  5 31  1  0
  6 32  1  0
  6 33  1  0
  9 34  1  0
 11 35  1  0
 14 36  1  0
 14 37  1  0
 14 38  1  0
 17 39  1  0
 17 40  1  0
 17 41  1  0
 18 42  1  0
M  END
>  <loss>  (20) 
0.32710233330726624

>  <score>  (20) 
6.298714637756348

$$$$
HVXKWUADFCSFOS-UHFFFAOYSA-N
     RDKit          3D

 42 42  0  0  0  0  0  0  0  0999 V2000
  119.7476  123.7538   81.0027 C   0  0  0  0  0  0  0  0  0  0  0  0
  119.7414  122.6244   82.0241 C   0  0  0  0  0  0  0  0  0  0  0  0
  119.7890  122.9937   83.4480 N   0  0  0  0  0  0  0  0  0  0  0  0
  118.4863  123.4005   83.9976 C   0  0  0  0  0  0  0  0  0  0  0  0
  117.5975  124.2903   83.1351 C   0  0  0  0  0  0  0  0  0  0  0  0
  120.8845  123.9368   83.7783 C   0  0  0  0  0  0  0  0  0  0  0  0
  122.0895  123.1902   84.3618 C   0  0  0  0  0  0  0  0  0  0  0  0
  123.1880  123.1929   83.8185 O   0  0  0  0  0  0  0  0  0  0  0  0
  121.7678  122.5360   85.5444 N   0  0  0  0  0  0  0  0  0  0  0  0
  122.6776  122.1990   86.5672 C   0  0  0  0  0  0  0  0  0  0  0  0
  124.0127  122.0437   86.1689 C   0  0  0  0  0  0  0  0  0  0  0  0
  125.0024  121.7093   87.0957 C   0  0  0  0  0  0  0  0  0  0  0  0
  126.2714  121.5709   86.6057 O   0  0  0  0  0  0  0  0  0  0  0  0
  126.3299  120.6549   85.5111 C   0  0  0  0  0  0  0  0  0  0  0  0
  124.6721  121.5741   88.4449 C   0  0  0  0  0  0  0  0  0  0  0  0
  125.6023  121.2699   89.4014 O   0  0  0  0  0  0  0  0  0  0  0  0
  126.2405  122.4612   89.8654 C   0  0  0  0  0  0  0  0  0  0  0  0
  123.3406  121.6637   88.8454 C   0  0  0  0  0  0  0  0  0  0  0  0
  122.3315  121.9614   87.9134 C   0  0  0  0  0  0  0  0  0  0  0  0
  120.9754  121.8427   88.3686 C   0  0  0  0  0  0  0  0  0  0  0  0
  119.9033  121.6567   88.7760 N   0  0  0  0  0  0  0  0  0  0  0  0
  119.7529  124.7214   81.5259 H   0  0  0  0  0  0  0  0  0  0  0  0
  120.6453  123.6730   80.3721 H   0  0  0  0  0  0  0  0  0  0  0  0
  118.8490  123.6829   80.3721 H   0  0  0  0  0  0  0  0  0  0  0  0
  118.8216  122.0423   81.8656 H   0  0  0  0  0  0  0  0  0  0  0  0
  120.6804  122.0803   81.8448 H   0  0  0  0  0  0  0  0  0  0  0  0
  117.9202  122.4824   84.2138 H   0  0  0  0  0  0  0  0  0  0  0  0
  118.7355  124.0210   84.8710 H   0  0  0  0  0  0  0  0  0  0  0  0
  116.9694  124.9193   83.7831 H   0  0  0  0  0  0  0  0  0  0  0  0
  118.2265  124.9315   82.5001 H   0  0  0  0  0  0  0  0  0  0  0  0
  116.9556  123.6621   82.5001 H   0  0  0  0  0  0  0  0  0  0  0  0
  121.1950  124.4632   82.8636 H   0  0  0  0  0  0  0  0  0  0  0  0
  120.5180  124.6538   84.5276 H   0  0  0  0  0  0  0  0  0  0  0  0
  120.7815  122.2752   85.6858 H   0  0  0  0  0  0  0  0  0  0  0  0
  124.2843  122.1872   85.1126 H   0  0  0  0  0  0  0  0  0  0  0  0
  126.3957  119.6267   85.8966 H   0  0  0  0  0  0  0  0  0  0  0  0
  125.4233  120.7589   84.8970 H   0  0  0  0  0  0  0  0  0  0  0  0
  127.2159  120.8736   84.8970 H   0  0  0  0  0  0  0  0  0  0  0  0
  126.2452  122.4700   90.9654 H   0  0  0  0  0  0  0  0  0  0  0  0
  127.2755  122.4911   89.4941 H   0  0  0  0  0  0  0  0  0  0  0  0
  125.6921  123.3395   89.4941 H   0  0  0  0  0  0  0  0  0  0  0  0
  123.0768  121.5000   89.9006 H   0  0  0  0  0  0  0  0  0  0  0  0
  1  2  1  0
  2  3  1  0
  3  4  1  0
  4  5  1  0
  3  6  1  0
  6  7  1  0
  7  8  2  0
  7  9  1  0
  9 10  1  0
 10 11  2  0
 11 12  1  0
 12 13  1  0
 13 14  1  0
 12 15  2  0
 15 16  1  0
 16 17  1  0
 15 18  1  0
 18 19  2  0
 19 20  1  0
 20 21  3  0
 19 10  1  0
  1 22  1  0
  1 23  1  0
  1 24  1  0
  2 25  1  0
  2 26  1  0
  4 27  1  0
  4 28  1  0
  5 29  1  0
  5 30  1  0
  5 31  1  0
  6 32  1  0
  6 33  1  0
  9 34  1  0
 11 35  1  0
 14 36  1  0
 14 37  1  0
 14 38  1  0
 17 39  1  0
 17 40  1  0
 17 41  1  0
 18 42  1  0
M  END
>  <loss>  (21) 
0.32761460542678833

>  <score>  (21) 
6.285980224609375

$$$$
HVXKWUADFCSFOS-UHFFFAOYSA-N
     RDKit          3D

 42 42  0  0  0  0  0  0  0  0999 V2000
  120.1823  123.1342   80.5584 C   0  0  0  0  0  0  0  0  0  0  0  0
  119.4486  123.8828   81.6680 C   0  0  0  0  0  0  0  0  0  0  0  0
  119.5934  123.3337   83.0257 N   0  0  0  0  0  0  0  0  0  0  0  0
  118.3966  122.6561   83.5433 C   0  0  0  0  0  0  0  0  0  0  0  0
  117.1714  123.5573   83.6645 C   0  0  0  0  0  0  0  0  0  0  0  0
  120.8104  122.5013   83.1334 C   0  0  0  0  0  0  0  0  0  0  0  0
  121.7297  122.9801   84.2707 C   0  0  0  0  0  0  0  0  0  0  0  0
  122.3258  124.0517   84.2073 O   0  0  0  0  0  0  0  0  0  0  0  0
  121.7892  122.0779   85.3270 N   0  0  0  0  0  0  0  0  0  0  0  0
  122.8155  121.9553   86.3023 C   0  0  0  0  0  0  0  0  0  0  0  0
  124.1450  121.6820   85.9639 C   0  0  0  0  0  0  0  0  0  0  0  0
  125.1301  121.5648   86.9534 C   0  0  0  0  0  0  0  0  0  0  0  0
  126.4133  121.3156   86.5409 O   0  0  0  0  0  0  0  0  0  0  0  0
  126.7254  122.1287   85.4082 C   0  0  0  0  0  0  0  0  0  0  0  0
  124.7954  121.6638   88.3054 C   0  0  0  0  0  0  0  0  0  0  0  0
  125.6717  121.5488   89.3504 O   0  0  0  0  0  0  0  0  0  0  0  0
  125.1693  120.7793   90.4424 C   0  0  0  0  0  0  0  0  0  0  0  0
  123.4794  121.9570   88.6582 C   0  0  0  0  0  0  0  0  0  0  0  0
  122.4921  122.0949   87.6701 C   0  0  0  0  0  0  0  0  0  0  0  0
  121.1534  122.3867   88.0913 C   0  0  0  0  0  0  0  0  0  0  0  0
  120.0518  122.6207   88.3726 N   0  0  0  0  0  0  0  0  0  0  0  0
  120.8862  122.4159   81.0040 H   0  0  0  0  0  0  0  0  0  0  0  0
  119.4532  122.5949   79.9358 H   0  0  0  0  0  0  0  0  0  0  0  0
  120.7362  123.8522   79.9358 H   0  0  0  0  0  0  0  0  0  0  0  0
  119.8251  124.9163   81.6817 H   0  0  0  0  0  0  0  0  0  0  0  0
  118.3791  123.7947   81.4264 H   0  0  0  0  0  0  0  0  0  0  0  0
  118.1490  121.8266   82.8647 H   0  0  0  0  0  0  0  0  0  0  0  0
  118.6408  122.3159   84.5605 H   0  0  0  0  0  0  0  0  0  0  0  0
  116.9433  123.7251   84.7274 H   0  0  0  0  0  0  0  0  0  0  0  0
  117.3760  124.5218   83.1767 H   0  0  0  0  0  0  0  0  0  0  0  0
  116.3116  123.0748   83.1767 H   0  0  0  0  0  0  0  0  0  0  0  0
  120.5139  121.4602   83.3293 H   0  0  0  0  0  0  0  0  0  0  0  0
  121.3656  122.5821   82.1872 H   0  0  0  0  0  0  0  0  0  0  0  0
  120.9987  121.4231   85.4123 H   0  0  0  0  0  0  0  0  0  0  0  0
  124.4209  121.5573   84.9064 H   0  0  0  0  0  0  0  0  0  0  0  0
  127.1002  123.1049   85.7497 H   0  0  0  0  0  0  0  0  0  0  0  0
  127.4967  121.6317   84.8015 H   0  0  0  0  0  0  0  0  0  0  0  0
  125.8197  122.2755   84.8015 H   0  0  0  0  0  0  0  0  0  0  0  0
  125.4740  121.2460   91.3908 H   0  0  0  0  0  0  0  0  0  0  0  0
  124.0713  120.7403   90.3891 H   0  0  0  0  0  0  0  0  0  0  0  0
  125.5754  119.7584   90.3891 H   0  0  0  0  0  0  0  0  0  0  0  0
  123.2127  122.0812   89.7181 H   0  0  0  0  0  0  0  0  0  0  0  0
  1  2  1  0
  2  3  1  0
  3  4  1  0
  4  5  1  0
  3  6  1  0
  6  7  1  0
  7  8  2  0
  7  9  1  0
  9 10  1  0
 10 11  2  0
 11 12  1  0
 12 13  1  0
 13 14  1  0
 12 15  2  0
 15 16  1  0
 16 17  1  0
 15 18  1  0
 18 19  2  0
 19 20  1  0
 20 21  3  0
 19 10  1  0
  1 22  1  0
  1 23  1  0
  1 24  1  0
  2 25  1  0
  2 26  1  0
  4 27  1  0
  4 28  1  0
  5 29  1  0
  5 30  1  0
  5 31  1  0
  6 32  1  0
  6 33  1  0
  9 34  1  0
 11 35  1  0
 14 36  1  0
 14 37  1  0
 14 38  1  0
 17 39  1  0
 17 40  1  0
 17 41  1  0
 18 42  1  0
M  END
>  <loss>  (22) 
0.31406763195991516

>  <score>  (22) 
6.0980353355407715

$$$$
HVXKWUADFCSFOS-UHFFFAOYSA-N
     RDKit          3D

 42 42  0  0  0  0  0  0  0  0999 V2000
  119.4272  124.3536   81.2891 C   0  0  0  0  0  0  0  0  0  0  0  0
  120.0907  123.1854   82.0058 C   0  0  0  0  0  0  0  0  0  0  0  0
  119.6384  122.8792   83.3725 N   0  0  0  0  0  0  0  0  0  0  0  0
  118.2246  122.4799   83.4522 C   0  0  0  0  0  0  0  0  0  0  0  0
  117.1884  123.5752   83.6802 C   0  0  0  0  0  0  0  0  0  0  0  0
  120.0114  123.9157   84.3652 C   0  0  0  0  0  0  0  0  0  0  0  0
  121.4621  123.7330   84.8255 C   0  0  0  0  0  0  0  0  0  0  0  0
  122.3224  124.5846   84.6345 O   0  0  0  0  0  0  0  0  0  0  0  0
  121.6519  122.5124   85.4612 N   0  0  0  0  0  0  0  0  0  0  0  0
  122.6678  122.2252   86.3956 C   0  0  0  0  0  0  0  0  0  0  0  0
  123.9587  122.0822   85.8679 C   0  0  0  0  0  0  0  0  0  0  0  0
  125.0443  121.7960   86.6987 C   0  0  0  0  0  0  0  0  0  0  0  0
  126.2597  121.6657   86.0861 O   0  0  0  0  0  0  0  0  0  0  0  0
  126.5630  120.3053   85.7732 C   0  0  0  0  0  0  0  0  0  0  0  0
  124.8554  121.6978   88.0778 C   0  0  0  0  0  0  0  0  0  0  0  0
  125.8841  121.4416   88.9432 O   0  0  0  0  0  0  0  0  0  0  0  0
  125.6271  122.0515   90.2095 C   0  0  0  0  0  0  0  0  0  0  0  0
  123.5698  121.7753   88.6092 C   0  0  0  0  0  0  0  0  0  0  0  0
  122.4651  122.0243   87.7765 C   0  0  0  0  0  0  0  0  0  0  0  0
  121.1651  121.8949   88.3709 C   0  0  0  0  0  0  0  0  0  0  0  0
  120.1440  121.7021   88.8909 N   0  0  0  0  0  0  0  0  0  0  0  0
  119.0263  125.0594   82.0315 H   0  0  0  0  0  0  0  0  0  0  0  0
  120.1689  124.8663   80.6590 H   0  0  0  0  0  0  0  0  0  0  0  0
  118.6070  123.9791   80.6590 H   0  0  0  0  0  0  0  0  0  0  0  0
  119.9234  122.2863   81.3945 H   0  0  0  0  0  0  0  0  0  0  0  0
  121.1419  123.4885   82.1206 H   0  0  0  0  0  0  0  0  0  0  0  0
  117.9709  121.9801   82.5057 H   0  0  0  0  0  0  0  0  0  0  0  0
  118.1648  121.8502   84.3522 H   0  0  0  0  0  0  0  0  0  0  0  0
  117.0458  123.7260   84.7605 H   0  0  0  0  0  0  0  0  0  0  0  0
  117.5384  124.5122   83.2223 H   0  0  0  0  0  0  0  0  0  0  0  0
  116.2335  123.2777   83.2223 H   0  0  0  0  0  0  0  0  0  0  0  0
  119.9009  124.9097   83.9073 H   0  0  0  0  0  0  0  0  0  0  0  0
  119.3501  123.8204   85.2390 H   0  0  0  0  0  0  0  0  0  0  0  0
  120.9951  121.7534   85.2305 H   0  0  0  0  0  0  0  0  0  0  0  0
  124.1187  122.1970   84.7857 H   0  0  0  0  0  0  0  0  0  0  0  0
  126.6903  119.7344   86.7048 H   0  0  0  0  0  0  0  0  0  0  0  0
  125.7395  119.8715   85.1870 H   0  0  0  0  0  0  0  0  0  0  0  0
  127.4928  120.2623   85.1870 H   0  0  0  0  0  0  0  0  0  0  0  0
  125.9181  121.3610   91.0149 H   0  0  0  0  0  0  0  0  0  0  0  0
  126.2103  122.9803   90.2943 H   0  0  0  0  0  0  0  0  0  0  0  0
  124.5550  122.2827   90.2943 H   0  0  0  0  0  0  0  0  0  0  0  0
  123.4178  121.6404   89.6903 H   0  0  0  0  0  0  0  0  0  0  0  0
  1  2  1  0
  2  3  1  0
  3  4  1  0
  4  5  1  0
  3  6  1  0
  6  7  1  0
  7  8  2  0
  7  9  1  0
  9 10  1  0
 10 11  2  0
 11 12  1  0
 12 13  1  0
 13 14  1  0
 12 15  2  0
 15 16  1  0
 16 17  1  0
 15 18  1  0
 18 19  2  0
 19 20  1  0
 20 21  3  0
 19 10  1  0
  1 22  1  0
  1 23  1  0
  1 24  1  0
  2 25  1  0
  2 26  1  0
  4 27  1  0
  4 28  1  0
  5 29  1  0
  5 30  1  0
  5 31  1  0
  6 32  1  0
  6 33  1  0
  9 34  1  0
 11 35  1  0
 14 36  1  0
 14 37  1  0
 14 38  1  0
 17 39  1  0
 17 40  1  0
 17 41  1  0
 18 42  1  0
M  END
>  <loss>  (23) 
0.3240734338760376

>  <score>  (23) 
6.0831122398376465

$$$$
HVXKWUADFCSFOS-UHFFFAOYSA-N
     RDKit          3D

 42 42  0  0  0  0  0  0  0  0999 V2000
  117.5117  122.1323   82.7813 C   0  0  0  0  0  0  0  0  0  0  0  0
  118.5825  122.9012   82.0117 C   0  0  0  0  0  0  0  0  0  0  0  0
  119.7751  123.2947   82.7790 N   0  0  0  0  0  0  0  0  0  0  0  0
  119.5697  124.4272   83.6926 C   0  0  0  0  0  0  0  0  0  0  0  0
  118.4627  125.3848   83.2619 C   0  0  0  0  0  0  0  0  0  0  0  0
  120.3835  122.1257   83.4489 C   0  0  0  0  0  0  0  0  0  0  0  0
  121.5778  122.5315   84.3303 C   0  0  0  0  0  0  0  0  0  0  0  0
  122.4088  123.3510   83.9490 O   0  0  0  0  0  0  0  0  0  0  0  0
  121.5859  121.8756   85.5563 N   0  0  0  0  0  0  0  0  0  0  0  0
  122.6404  121.8351   86.5080 C   0  0  0  0  0  0  0  0  0  0  0  0
  123.9706  121.5976   86.1461 C   0  0  0  0  0  0  0  0  0  0  0  0
  124.9842  121.5616   87.1129 C   0  0  0  0  0  0  0  0  0  0  0  0
  126.2652  121.3431   86.6772 O   0  0  0  0  0  0  0  0  0  0  0  0
  126.5979  122.2857   85.6561 C   0  0  0  0  0  0  0  0  0  0  0  0
  124.6800  121.7075   88.4679 C   0  0  0  0  0  0  0  0  0  0  0  0
  125.5862  121.6719   89.4929 O   0  0  0  0  0  0  0  0  0  0  0  0
  125.6663  120.4066   90.1483 C   0  0  0  0  0  0  0  0  0  0  0  0
  123.3630  121.9659   88.8429 C   0  0  0  0  0  0  0  0  0  0  0  0
  122.3464  122.0226   87.8768 C   0  0  0  0  0  0  0  0  0  0  0  0
  121.0084  122.2819   88.3208 C   0  0  0  0  0  0  0  0  0  0  0  0
  119.9059  122.4862   88.6213 N   0  0  0  0  0  0  0  0  0  0  0  0
  117.6792  122.2526   83.8618 H   0  0  0  0  0  0  0  0  0  0  0  0
  116.5183  122.5247   82.5183 H   0  0  0  0  0  0  0  0  0  0  0  0
  117.5660  121.0656   82.5183 H   0  0  0  0  0  0  0  0  0  0  0  0
  118.9147  122.2685   81.1754 H   0  0  0  0  0  0  0  0  0  0  0  0
  118.1055  123.8433   81.7038 H   0  0  0  0  0  0  0  0  0  0  0  0
  119.3136  124.0279   84.6850 H   0  0  0  0  0  0  0  0  0  0  0  0
  120.5053  125.0057   83.6946 H   0  0  0  0  0  0  0  0  0  0  0  0
  117.9753  125.8065   84.1533 H   0  0  0  0  0  0  0  0  0  0  0  0
  118.8950  126.1984   82.6609 H   0  0  0  0  0  0  0  0  0  0  0  0
  117.7198  124.8399   82.6609 H   0  0  0  0  0  0  0  0  0  0  0  0
  119.6236  121.6411   84.0796 H   0  0  0  0  0  0  0  0  0  0  0  0
  120.7490  121.4377   82.6724 H   0  0  0  0  0  0  0  0  0  0  0  0
  120.7291  121.3598   85.8030 H   0  0  0  0  0  0  0  0  0  0  0  0
  124.2243  121.4369   85.0879 H   0  0  0  0  0  0  0  0  0  0  0  0
  126.9299  123.2264   86.1195 H   0  0  0  0  0  0  0  0  0  0  0  0
  127.4069  121.8792   85.0313 H   0  0  0  0  0  0  0  0  0  0  0  0
  125.7130  122.4770   85.0313 H   0  0  0  0  0  0  0  0  0  0  0  0
  125.6568  120.5568   91.2380 H   0  0  0  0  0  0  0  0  0  0  0  0
  124.8056  119.7871   89.8561 H   0  0  0  0  0  0  0  0  0  0  0  0
  126.5983  119.9006   89.8561 H   0  0  0  0  0  0  0  0  0  0  0  0
  123.1184  122.1265   89.9033 H   0  0  0  0  0  0  0  0  0  0  0  0
  1  2  1  0
  2  3  1  0
  3  4  1  0
  4  5  1  0
  3  6  1  0
  6  7  1  0
  7  8  2  0
  7  9  1  0
  9 10  1  0
 10 11  2  0
 11 12  1  0
 12 13  1  0
 13 14  1  0
 12 15  2  0
 15 16  1  0
 16 17  1  0
 15 18  1  0
 18 19  2  0
 19 20  1  0
 20 21  3  0
 19 10  1  0
  1 22  1  0
  1 23  1  0
  1 24  1  0
  2 25  1  0
  2 26  1  0
  4 27  1  0
  4 28  1  0
  5 29  1  0
  5 30  1  0
  5 31  1  0
  6 32  1  0
  6 33  1  0
  9 34  1  0
 11 35  1  0
 14 36  1  0
 14 37  1  0
 14 38  1  0
 17 39  1  0
 17 40  1  0
 17 41  1  0
 18 42  1  0
M  END
>  <loss>  (24) 
0.3385661840438843

>  <score>  (24) 
6.123406410217285

$$$$
HVXKWUADFCSFOS-UHFFFAOYSA-N
     RDKit          3D

 42 42  0  0  0  0  0  0  0  0999 V2000
  117.5534  122.5460   83.3167 C   0  0  0  0  0  0  0  0  0  0  0  0
  118.5583  123.0410   82.2799 C   0  0  0  0  0  0  0  0  0  0  0  0
  119.9129  123.3306   82.7770 N   0  0  0  0  0  0  0  0  0  0  0  0
  120.0061  124.5084   83.6507 C   0  0  0  0  0  0  0  0  0  0  0  0
  119.0648  125.6466   83.2680 C   0  0  0  0  0  0  0  0  0  0  0  0
  120.5255  122.1264   83.3772 C   0  0  0  0  0  0  0  0  0  0  0  0
  121.7510  122.4793   84.2383 C   0  0  0  0  0  0  0  0  0  0  0  0
  122.6345  123.2246   83.8240 O   0  0  0  0  0  0  0  0  0  0  0  0
  121.7216  121.8689   85.4872 N   0  0  0  0  0  0  0  0  0  0  0  0
  122.7591  121.8358   86.4578 C   0  0  0  0  0  0  0  0  0  0  0  0
  124.0941  121.5867   86.1225 C   0  0  0  0  0  0  0  0  0  0  0  0
  125.0904  121.5585   87.1073 C   0  0  0  0  0  0  0  0  0  0  0  0
  126.3778  121.3276   86.6972 O   0  0  0  0  0  0  0  0  0  0  0  0
  126.6246  122.0101   85.4664 C   0  0  0  0  0  0  0  0  0  0  0  0
  124.7634  121.7241   88.4547 C   0  0  0  0  0  0  0  0  0  0  0  0
  125.6513  121.6977   89.4959 O   0  0  0  0  0  0  0  0  0  0  0  0
  125.6308  120.4804   90.2408 C   0  0  0  0  0  0  0  0  0  0  0  0
  123.4414  121.9943   88.8031 C   0  0  0  0  0  0  0  0  0  0  0  0
  122.4423  122.0432   87.8185 C   0  0  0  0  0  0  0  0  0  0  0  0
  121.0980  122.3153   88.2355 C   0  0  0  0  0  0  0  0  0  0  0  0
  119.9916  122.5293   88.5138 N   0  0  0  0  0  0  0  0  0  0  0  0
  117.9439  122.7384   84.3269 H   0  0  0  0  0  0  0  0  0  0  0  0
  116.5992  123.0772   83.1852 H   0  0  0  0  0  0  0  0  0  0  0  0
  117.3928  121.4658   83.1852 H   0  0  0  0  0  0  0  0  0  0  0  0
  118.6443  122.2697   81.5004 H   0  0  0  0  0  0  0  0  0  0  0  0
  118.1634  124.0032   81.9218 H   0  0  0  0  0  0  0  0  0  0  0  0
  119.7690  124.1954   84.6783 H   0  0  0  0  0  0  0  0  0  0  0  0
  121.0301  124.8972   83.5494 H   0  0  0  0  0  0  0  0  0  0  0  0
  118.6728  126.1206   84.1799 H   0  0  0  0  0  0  0  0  0  0  0  0
  119.6136  126.3922   82.6740 H   0  0  0  0  0  0  0  0  0  0  0  0
  118.2294  125.2474   82.6740 H   0  0  0  0  0  0  0  0  0  0  0  0
  119.7786  121.6240   84.0094 H   0  0  0  0  0  0  0  0  0  0  0  0
  120.8584  121.4684   82.5610 H   0  0  0  0  0  0  0  0  0  0  0  0
  120.8475  121.3851   85.7377 H   0  0  0  0  0  0  0  0  0  0  0  0
  124.3655  121.4104   85.0712 H   0  0  0  0  0  0  0  0  0  0  0  0
  126.9919  123.0253   85.6773 H   0  0  0  0  0  0  0  0  0  0  0  0
  127.3806  121.4597   84.8871 H   0  0  0  0  0  0  0  0  0  0  0  0
  125.6915  122.0707   84.8871 H   0  0  0  0  0  0  0  0  0  0  0  0
  125.6346  120.7089   91.3168 H   0  0  0  0  0  0  0  0  0  0  0  0
  124.7229  119.9123   89.9898 H   0  0  0  0  0  0  0  0  0  0  0  0
  126.5189  119.8819   89.9898 H   0  0  0  0  0  0  0  0  0  0  0  0
  123.1792  122.1705   89.8568 H   0  0  0  0  0  0  0  0  0  0  0  0
  1  2  1  0
  2  3  1  0
  3  4  1  0
  4  5  1  0
  3  6  1  0
  6  7  1  0
  7  8  2  0
  7  9  1  0
  9 10  1  0
 10 11  2  0
 11 12  1  0
 12 13  1  0
 13 14  1  0
 12 15  2  0
 15 16  1  0
 16 17  1  0
 15 18  1  0
 18 19  2  0
 19 20  1  0
 20 21  3  0
 19 10  1  0
  1 22  1  0
  1 23  1  0
  1 24  1  0
  2 25  1  0
  2 26  1  0
  4 27  1  0
  4 28  1  0
  5 29  1  0
  5 30  1  0
  5 31  1  0
  6 32  1  0
  6 33  1  0
  9 34  1  0
 11 35  1  0
 14 36  1  0
 14 37  1  0
 14 38  1  0
 17 39  1  0
 17 40  1  0
 17 41  1  0
 18 42  1  0
M  END
>  <loss>  (25) 
0.3441103398799896

>  <score>  (25) 
6.131412982940674

$$$$
