HYRUGIUWLDAVFJ-UHFFFAOYSA-N
     RDKit          3D

 31 31  0  0  0  0  0  0  0  0999 V2000
  120.2586  122.3426   88.6402 O   0  0  0  0  0  0  0  0  0  0  0  0
  121.0346  122.1955   87.7028 C   0  0  0  0  0  0  0  0  0  0  0  0
  120.6376  122.2476   86.3829 N   0  0  0  0  0  0  0  0  0  0  0  0
  119.5532  123.1181   85.9706 C   0  0  0  0  0  0  0  0  0  0  0  0
  119.2730  123.0546   84.4654 C   0  0  0  0  0  0  0  0  0  0  0  0
  120.0356  124.0296   83.7514 O   0  0  0  0  0  0  0  0  0  0  0  0
  121.2254  123.4777   83.1608 C   0  0  0  0  0  0  0  0  0  0  0  0
  121.8457  124.4176   82.1308 C   0  0  0  0  0  0  0  0  0  0  0  0
  122.4883  125.4505   82.7203 F   0  0  0  0  0  0  0  0  0  0  0  0
  122.7566  123.7544   81.3783 F   0  0  0  0  0  0  0  0  0  0  0  0
  120.9197  124.9241   81.2876 F   0  0  0  0  0  0  0  0  0  0  0  0
  122.4877  121.9912   87.9576 C   0  0  0  0  0  0  0  0  0  0  0  0
  123.4466  122.1168   86.9421 C   0  0  0  0  0  0  0  0  0  0  0  0
  124.8014  121.9074   87.2250 C   0  0  0  0  0  0  0  0  0  0  0  0
  125.1945  121.5638   88.5265 C   0  0  0  0  0  0  0  0  0  0  0  0
  126.6163  121.3440   88.8237 N   0  0  0  0  0  4  0  0  0  0  0  0
  127.4374  121.6182   87.9370 O   0  0  0  0  0  0  0  0  0  0  0  0
  126.9096  120.9018   89.9431 O   0  0  0  0  0  1  0  0  0  0  0  0
  124.2416  121.4218   89.5432 C   0  0  0  0  0  0  0  0  0  0  0  0
  122.8900  121.6316   89.2527 C   0  0  0  0  0  0  0  0  0  0  0  0
  121.1160  121.6626   85.6831 H   0  0  0  0  0  0  0  0  0  0  0  0
  118.6414  122.8214   86.5096 H   0  0  0  0  0  0  0  0  0  0  0  0
  119.8524  124.1501   86.2060 H   0  0  0  0  0  0  0  0  0  0  0  0
  119.5357  122.0529   84.0945 H   0  0  0  0  0  0  0  0  0  0  0  0
  118.2053  123.2634   84.3030 H   0  0  0  0  0  0  0  0  0  0  0  0
  121.9610  123.2884   83.9564 H   0  0  0  0  0  0  0  0  0  0  0  0
  120.9463  122.5472   82.6447 H   0  0  0  0  0  0  0  0  0  0  0  0
  123.1335  122.3805   85.9211 H   0  0  0  0  0  0  0  0  0  0  0  0
  125.5543  122.0120   86.4299 H   0  0  0  0  0  0  0  0  0  0  0  0
  124.5539  121.1476   90.5617 H   0  0  0  0  0  0  0  0  0  0  0  0
  122.1365  121.5139   90.0454 H   0  0  0  0  0  0  0  0  0  0  0  0
  1  2  2  0
  2  3  1  0
  3  4  1  0
  4  5  1  0
  5  6  1  0
  6  7  1  0
  7  8  1  0
  8  9  1  0
  8 10  1  0
  8 11  1  0
  2 12  1  0
 12 13  2  0
 13 14  1  0
 14 15  2  0
 15 16  1  0
 16 17  2  0
 16 18  1  0
 15 19  1  0
 19 20  2  0
 20 12  1  0
  3 21  1  0
  4 22  1  0
  4 23  1  0
  5 24  1  0
  5 25  1  0
  7 26  1  0
  7 27  1  0
 13 28  1  0
 14 29  1  0
 19 30  1  0
 20 31  1  0
M  CHG  2  16   1  18  -1
M  END
>  <loss>  (1) 
0.4420432150363922

>  <score>  (1) 
5.95379114151001

$$$$
HYRUGIUWLDAVFJ-UHFFFAOYSA-N
     RDKit          3D

 31 31  0  0  0  0  0  0  0  0999 V2000
  120.1824  122.4772   88.5040 O   0  0  0  0  0  0  0  0  0  0  0  0
  120.9912  122.3210   87.5963 C   0  0  0  0  0  0  0  0  0  0  0  0
  120.6453  122.3808   86.2625 N   0  0  0  0  0  0  0  0  0  0  0  0
  119.5935  123.2713   85.8103 C   0  0  0  0  0  0  0  0  0  0  0  0
  119.3698  123.2140   84.2955 C   0  0  0  0  0  0  0  0  0  0  0  0
  120.1626  124.1883   83.6141 O   0  0  0  0  0  0  0  0  0  0  0  0
  121.3809  123.6377   83.0835 C   0  0  0  0  0  0  0  0  0  0  0  0
  122.0397  124.5690   82.0698 C   0  0  0  0  0  0  0  0  0  0  0  0
  122.6250  125.6285   82.6715 F   0  0  0  0  0  0  0  0  0  0  0  0
  123.0064  123.9105   81.3859 F   0  0  0  0  0  0  0  0  0  0  0  0
  121.1534  125.0364   81.1636 F   0  0  0  0  0  0  0  0  0  0  0  0
  122.4308  122.0965   87.9055 C   0  0  0  0  0  0  0  0  0  0  0  0
  123.4315  122.2338   86.9327 C   0  0  0  0  0  0  0  0  0  0  0  0
  124.7715  122.0046   87.2658 C   0  0  0  0  0  0  0  0  0  0  0  0
  125.1079  121.6294   88.5746 C   0  0  0  0  0  0  0  0  0  0  0  0
  126.5143  121.3889   88.9245 N   0  0  0  0  0  4  0  0  0  0  0  0
  127.3720  121.6534   88.0702 O   0  0  0  0  0  0  0  0  0  0  0  0
  126.7589  120.9399   90.0528 O   0  0  0  0  0  1  0  0  0  0  0  0
  124.1130  121.4758   89.5484 C   0  0  0  0  0  0  0  0  0  0  0  0
  122.7764  121.7055   89.2078 C   0  0  0  0  0  0  0  0  0  0  0  0
  121.1387  121.7870   85.5807 H   0  0  0  0  0  0  0  0  0  0  0  0
  118.6565  122.9910   86.3138 H   0  0  0  0  0  0  0  0  0  0  0  0
  119.9023  124.2975   86.0586 H   0  0  0  0  0  0  0  0  0  0  0  0
  119.6422  122.2126   83.9311 H   0  0  0  0  0  0  0  0  0  0  0  0
  118.3098  123.4278   84.0938 H   0  0  0  0  0  0  0  0  0  0  0  0
  122.0820  123.4637   83.9130 H   0  0  0  0  0  0  0  0  0  0  0  0
  121.1310  122.6988   82.5677 H   0  0  0  0  0  0  0  0  0  0  0  0
  123.1628  122.5222   85.9058 H   0  0  0  0  0  0  0  0  0  0  0  0
  125.5573  122.1181   86.5045 H   0  0  0  0  0  0  0  0  0  0  0  0
  124.3808  121.1769   90.5726 H   0  0  0  0  0  0  0  0  0  0  0  0
  121.9901  121.5788   89.9665 H   0  0  0  0  0  0  0  0  0  0  0  0
  1  2  2  0
  2  3  1  0
  3  4  1  0
  4  5  1  0
  5  6  1  0
  6  7  1  0
  7  8  1  0
  8  9  1  0
  8 10  1  0
  8 11  1  0
  2 12  1  0
 12 13  2  0
 13 14  1  0
 14 15  2  0
 15 16  1  0
 16 17  2  0
 16 18  1  0
 15 19  1  0
 19 20  2  0
 20 12  1  0
  3 21  1  0
  4 22  1  0
  4 23  1  0
  5 24  1  0
  5 25  1  0
  7 26  1  0
  7 27  1  0
 13 28  1  0
 14 29  1  0
 19 30  1  0
 20 31  1  0
M  CHG  2  16   1  18  -1
M  END
>  <loss>  (2) 
0.43812844157218933

>  <score>  (2) 
5.824881553649902

$$$$
HYRUGIUWLDAVFJ-UHFFFAOYSA-N
     RDKit          3D

 31 31  0  0  0  0  0  0  0  0999 V2000
  120.0966  122.2617   88.4367 O   0  0  0  0  0  0  0  0  0  0  0  0
  120.9471  122.1984   87.5563 C   0  0  0  0  0  0  0  0  0  0  0  0
  120.6546  122.3462   86.2165 N   0  0  0  0  0  0  0  0  0  0  0  0
  119.5802  123.2203   85.7860 C   0  0  0  0  0  0  0  0  0  0  0  0
  119.3953  123.2385   84.2650 C   0  0  0  0  0  0  0  0  0  0  0  0
  120.2638  124.1894   83.6455 O   0  0  0  0  0  0  0  0  0  0  0  0
  121.4901  123.5984   83.1809 C   0  0  0  0  0  0  0  0  0  0  0  0
  122.1517  124.4310   82.0863 C   0  0  0  0  0  0  0  0  0  0  0  0
  122.5957  125.6166   82.5601 F   0  0  0  0  0  0  0  0  0  0  0  0
  123.2228  123.7743   81.5790 F   0  0  0  0  0  0  0  0  0  0  0  0
  121.3080  124.6772   81.0602 F   0  0  0  0  0  0  0  0  0  0  0  0
  122.3794  121.9962   87.9108 C   0  0  0  0  0  0  0  0  0  0  0  0
  123.4080  122.1481   86.9698 C   0  0  0  0  0  0  0  0  0  0  0  0
  124.7403  121.9397   87.3452 C   0  0  0  0  0  0  0  0  0  0  0  0
  125.0410  121.5707   88.6643 C   0  0  0  0  0  0  0  0  0  0  0  0
  126.4392  121.3521   89.0585 N   0  0  0  0  0  4  0  0  0  0  0  0
  127.3188  121.6216   88.2284 O   0  0  0  0  0  0  0  0  0  0  0  0
  126.6555  120.9152   90.1974 O   0  0  0  0  0  1  0  0  0  0  0  0
  124.0184  121.4026   89.6065 C   0  0  0  0  0  0  0  0  0  0  0  0
  122.6899  121.6116   89.2238 C   0  0  0  0  0  0  0  0  0  0  0  0
  121.2046  121.8307   85.5146 H   0  0  0  0  0  0  0  0  0  0  0  0
  118.6430  122.8777   86.2488 H   0  0  0  0  0  0  0  0  0  0  0  0
  119.8428  124.2421   86.0976 H   0  0  0  0  0  0  0  0  0  0  0  0
  119.6171  122.2379   83.8655 H   0  0  0  0  0  0  0  0  0  0  0  0
  118.3561  123.5249   84.0460 H   0  0  0  0  0  0  0  0  0  0  0  0
  122.1852  123.5113   84.0290 H   0  0  0  0  0  0  0  0  0  0  0  0
  121.2508  122.6118   82.7573 H   0  0  0  0  0  0  0  0  0  0  0  0
  123.1674  122.4317   85.9346 H   0  0  0  0  0  0  0  0  0  0  0  0
  125.5477  122.0648   86.6087 H   0  0  0  0  0  0  0  0  0  0  0  0
  124.2585  121.1086   90.6390 H   0  0  0  0  0  0  0  0  0  0  0  0
  121.8821  121.4733   89.9576 H   0  0  0  0  0  0  0  0  0  0  0  0
  1  2  2  0
  2  3  1  0
  3  4  1  0
  4  5  1  0
  5  6  1  0
  6  7  1  0
  7  8  1  0
  8  9  1  0
  8 10  1  0
  8 11  1  0
  2 12  1  0
 12 13  2  0
 13 14  1  0
 14 15  2  0
 15 16  1  0
 16 17  2  0
 16 18  1  0
 15 19  1  0
 19 20  2  0
 20 12  1  0
  3 21  1  0
  4 22  1  0
  4 23  1  0
  5 24  1  0
  5 25  1  0
  7 26  1  0
  7 27  1  0
 13 28  1  0
 14 29  1  0
 19 30  1  0
 20 31  1  0
M  CHG  2  16   1  18  -1
M  END
>  <loss>  (3) 
0.4317212402820587

>  <score>  (3) 
5.770608425140381

$$$$
HYRUGIUWLDAVFJ-UHFFFAOYSA-N
     RDKit          3D

 31 31  0  0  0  0  0  0  0  0999 V2000
  120.1518  121.9980   88.1517 O   0  0  0  0  0  0  0  0  0  0  0  0
  121.0312  122.4325   87.4182 C   0  0  0  0  0  0  0  0  0  0  0  0
  120.7741  123.1477   86.2675 N   0  0  0  0  0  0  0  0  0  0  0  0
  119.4478  123.6669   85.9866 C   0  0  0  0  0  0  0  0  0  0  0  0
  119.1316  123.7445   84.4886 C   0  0  0  0  0  0  0  0  0  0  0  0
  120.2604  124.2123   83.7456 O   0  0  0  0  0  0  0  0  0  0  0  0
  121.0577  123.1502   83.2013 C   0  0  0  0  0  0  0  0  0  0  0  0
  121.2916  123.3093   81.7010 C   0  0  0  0  0  0  0  0  0  0  0  0
  122.2591  122.4528   81.2907 F   0  0  0  0  0  0  0  0  0  0  0  0
  121.7040  124.5574   81.3887 F   0  0  0  0  0  0  0  0  0  0  0  0
  120.1817  123.0359   80.9828 F   0  0  0  0  0  0  0  0  0  0  0  0
  122.4619  122.1591   87.7283 C   0  0  0  0  0  0  0  0  0  0  0  0
  123.5059  122.7061   86.9685 C   0  0  0  0  0  0  0  0  0  0  0  0
  124.8368  122.4290   87.3014 C   0  0  0  0  0  0  0  0  0  0  0  0
  125.1215  121.6087   88.4029 C   0  0  0  0  0  0  0  0  0  0  0  0
  126.5184  121.3169   88.7515 N   0  0  0  0  0  4  0  0  0  0  0  0
  127.4025  121.7859   88.0207 O   0  0  0  0  0  0  0  0  0  0  0  0
  126.7291  120.6161   89.7509 O   0  0  0  0  0  1  0  0  0  0  0  0
  124.0848  121.0710   89.1762 C   0  0  0  0  0  0  0  0  0  0  0  0
  122.7578  121.3532   88.8380 C   0  0  0  0  0  0  0  0  0  0  0  0
  121.5364  123.3165   85.5957 H   0  0  0  0  0  0  0  0  0  0  0  0
  118.7070  123.0102   86.4662 H   0  0  0  0  0  0  0  0  0  0  0  0
  119.4093  124.6929   86.3812 H   0  0  0  0  0  0  0  0  0  0  0  0
  118.8547  122.7428   84.1279 H   0  0  0  0  0  0  0  0  0  0  0  0
  118.3016  124.4518   84.3438 H   0  0  0  0  0  0  0  0  0  0  0  0
  122.0320  123.1423   83.7120 H   0  0  0  0  0  0  0  0  0  0  0  0
  120.5133  122.2073   83.3582 H   0  0  0  0  0  0  0  0  0  0  0  0
  123.2784  123.3541   86.1092 H   0  0  0  0  0  0  0  0  0  0  0  0
  125.6560  122.8527   86.7019 H   0  0  0  0  0  0  0  0  0  0  0  0
  124.3127  120.4322   90.0422 H   0  0  0  0  0  0  0  0  0  0  0  0
  121.9397  120.9404   89.4465 H   0  0  0  0  0  0  0  0  0  0  0  0
  1  2  2  0
  2  3  1  0
  3  4  1  0
  4  5  1  0
  5  6  1  0
  6  7  1  0
  7  8  1  0
  8  9  1  0
  8 10  1  0
  8 11  1  0
  2 12  1  0
 12 13  2  0
 13 14  1  0
 14 15  2  0
 15 16  1  0
 16 17  2  0
 16 18  1  0
 15 19  1  0
 19 20  2  0
 20 12  1  0
  3 21  1  0
  4 22  1  0
  4 23  1  0
  5 24  1  0
  5 25  1  0
  7 26  1  0
  7 27  1  0
 13 28  1  0
 14 29  1  0
 19 30  1  0
 20 31  1  0
M  CHG  2  16   1  18  -1
M  END
>  <loss>  (4) 
0.3997735381126404

>  <score>  (4) 
5.557467460632324

$$$$
HYRUGIUWLDAVFJ-UHFFFAOYSA-N
     RDKit          3D

 31 31  0  0  0  0  0  0  0  0999 V2000
  120.0532  122.1228   88.1832 O   0  0  0  0  0  0  0  0  0  0  0  0
  120.9148  122.2563   87.3215 C   0  0  0  0  0  0  0  0  0  0  0  0
  120.6316  122.6468   86.0293 N   0  0  0  0  0  0  0  0  0  0  0  0
  119.4754  123.4745   85.7434 C   0  0  0  0  0  0  0  0  0  0  0  0
  118.9499  123.2971   84.3150 C   0  0  0  0  0  0  0  0  0  0  0  0
  119.6305  124.1566   83.3984 O   0  0  0  0  0  0  0  0  0  0  0  0
  120.9937  123.7567   83.1729 C   0  0  0  0  0  0  0  0  0  0  0  0
  121.5883  124.4144   81.9307 C   0  0  0  0  0  0  0  0  0  0  0  0
  121.2811  125.7292   81.8660 F   0  0  0  0  0  0  0  0  0  0  0  0
  122.9396  124.3178   81.9492 F   0  0  0  0  0  0  0  0  0  0  0  0
  121.1586  123.8253   80.7933 F   0  0  0  0  0  0  0  0  0  0  0  0
  122.3495  122.0376   87.6559 C   0  0  0  0  0  0  0  0  0  0  0  0
  123.3687  122.2023   86.7069 C   0  0  0  0  0  0  0  0  0  0  0  0
  124.7036  121.9776   87.0631 C   0  0  0  0  0  0  0  0  0  0  0  0
  125.0164  121.5795   88.3709 C   0  0  0  0  0  0  0  0  0  0  0  0
  126.4173  121.3438   88.7450 N   0  0  0  0  0  4  0  0  0  0  0  0
  127.2834  121.5408   87.8810 O   0  0  0  0  0  0  0  0  0  0  0  0
  126.6493  120.9661   89.9018 O   0  0  0  0  0  1  0  0  0  0  0  0
  124.0031  121.3986   89.3208 C   0  0  0  0  0  0  0  0  0  0  0  0
  122.6718  121.6240   88.9572 C   0  0  0  0  0  0  0  0  0  0  0  0
  121.2472  122.3475   85.2598 H   0  0  0  0  0  0  0  0  0  0  0  0
  118.6726  123.2105   86.4475 H   0  0  0  0  0  0  0  0  0  0  0  0
  119.7876  124.5238   85.8509 H   0  0  0  0  0  0  0  0  0  0  0  0
  119.1007  122.2525   84.0053 H   0  0  0  0  0  0  0  0  0  0  0  0
  117.8811  123.5570   84.3046 H   0  0  0  0  0  0  0  0  0  0  0  0
  121.5962  124.0422   84.0478 H   0  0  0  0  0  0  0  0  0  0  0  0
  121.0054  122.6678   83.0175 H   0  0  0  0  0  0  0  0  0  0  0  0
  123.1187  122.5086   85.6805 H   0  0  0  0  0  0  0  0  0  0  0  0
  125.5038  122.1126   86.3205 H   0  0  0  0  0  0  0  0  0  0  0  0
  124.2524  121.0818   90.3443 H   0  0  0  0  0  0  0  0  0  0  0  0
  121.8713  121.4758   89.6969 H   0  0  0  0  0  0  0  0  0  0  0  0
  1  2  2  0
  2  3  1  0
  3  4  1  0
  4  5  1  0
  5  6  1  0
  6  7  1  0
  7  8  1  0
  8  9  1  0
  8 10  1  0
  8 11  1  0
  2 12  1  0
 12 13  2  0
 13 14  1  0
 14 15  2  0
 15 16  1  0
 16 17  2  0
 16 18  1  0
 15 19  1  0
 19 20  2  0
 20 12  1  0
  3 21  1  0
  4 22  1  0
  4 23  1  0
  5 24  1  0
  5 25  1  0
  7 26  1  0
  7 27  1  0
 13 28  1  0
 14 29  1  0
 19 30  1  0
 20 31  1  0
M  CHG  2  16   1  18  -1
M  END
>  <loss>  (5) 
0.429571270942688

>  <score>  (5) 
5.620253562927246

$$$$
HYRUGIUWLDAVFJ-UHFFFAOYSA-N
     RDKit          3D

 31 31  0  0  0  0  0  0  0  0999 V2000
  120.1436  121.9968   88.0887 O   0  0  0  0  0  0  0  0  0  0  0  0
  121.0419  122.4692   87.4030 C   0  0  0  0  0  0  0  0  0  0  0  0
  120.8150  123.2426   86.2847 N   0  0  0  0  0  0  0  0  0  0  0  0
  119.4827  123.7174   85.9582 C   0  0  0  0  0  0  0  0  0  0  0  0
  119.2455  123.8692   84.4529 C   0  0  0  0  0  0  0  0  0  0  0  0
  120.3510  123.2938   83.7525 O   0  0  0  0  0  0  0  0  0  0  0  0
  120.2466  123.4088   82.3234 C   0  0  0  0  0  0  0  0  0  0  0  0
  121.5334  123.7449   81.5694 C   0  0  0  0  0  0  0  0  0  0  0  0
  122.1269  124.8521   82.0686 F   0  0  0  0  0  0  0  0  0  0  0  0
  121.2592  123.9953   80.2663 F   0  0  0  0  0  0  0  0  0  0  0  0
  122.4246  122.7330   81.6092 F   0  0  0  0  0  0  0  0  0  0  0  0
  122.4643  122.1808   87.7372 C   0  0  0  0  0  0  0  0  0  0  0  0
  122.7441  121.5531   88.9603 C   0  0  0  0  0  0  0  0  0  0  0  0
  124.0631  121.2655   89.3247 C   0  0  0  0  0  0  0  0  0  0  0  0
  125.1082  121.6189   88.4617 C   0  0  0  0  0  0  0  0  0  0  0  0
  126.4967  121.3205   88.8372 N   0  0  0  0  0  4  0  0  0  0  0  0
  126.7488  120.1827   89.2573 O   0  0  0  0  0  0  0  0  0  0  0  0
  127.3340  122.2247   88.7066 O   0  0  0  0  0  1  0  0  0  0  0  0
  124.8404  122.2614   87.2441 C   0  0  0  0  0  0  0  0  0  0  0  0
  123.5174  122.5449   86.8859 C   0  0  0  0  0  0  0  0  0  0  0  0
  121.6043  123.4878   85.6701 H   0  0  0  0  0  0  0  0  0  0  0  0
  118.7493  123.0008   86.3566 H   0  0  0  0  0  0  0  0  0  0  0  0
  119.3734  124.7155   86.4074 H   0  0  0  0  0  0  0  0  0  0  0  0
  118.3180  123.3498   84.1704 H   0  0  0  0  0  0  0  0  0  0  0  0
  119.1528  124.9344   84.1946 H   0  0  0  0  0  0  0  0  0  0  0  0
  119.8744  122.4484   81.9373 H   0  0  0  0  0  0  0  0  0  0  0  0
  119.5759  124.2630   82.1488 H   0  0  0  0  0  0  0  0  0  0  0  0
  121.9199  121.2851   89.6376 H   0  0  0  0  0  0  0  0  0  0  0  0
  124.2781  120.7661   90.2809 H   0  0  0  0  0  0  0  0  0  0  0  0
  125.6664  122.5412   86.5737 H   0  0  0  0  0  0  0  0  0  0  0  0
  123.3033  123.0542   85.9347 H   0  0  0  0  0  0  0  0  0  0  0  0
  1  2  2  0
  2  3  1  0
  3  4  1  0
  4  5  1  0
  5  6  1  0
  6  7  1  0
  7  8  1  0
  8  9  1  0
  8 10  1  0
  8 11  1  0
  2 12  1  0
 12 13  2  0
 13 14  1  0
 14 15  2  0
 15 16  1  0
 16 17  2  0
 16 18  1  0
 15 19  1  0
 19 20  2  0
 20 12  1  0
  3 21  1  0
  4 22  1  0
  4 23  1  0
  5 24  1  0
  5 25  1  0
  7 26  1  0
  7 27  1  0
 13 28  1  0
 14 29  1  0
 19 30  1  0
 20 31  1  0
M  CHG  2  16   1  18  -1
M  END
>  <loss>  (6) 
0.41446244716644287

>  <score>  (6) 
5.409856796264648

$$$$
HYRUGIUWLDAVFJ-UHFFFAOYSA-N
     RDKit          3D

 31 31  0  0  0  0  0  0  0  0999 V2000
  120.1191  122.0469   88.1040 O   0  0  0  0  0  0  0  0  0  0  0  0
  121.0131  122.4597   87.3761 C   0  0  0  0  0  0  0  0  0  0  0  0
  120.7902  123.2069   86.2398 N   0  0  0  0  0  0  0  0  0  0  0  0
  119.4811  123.7601   85.9085 C   0  0  0  0  0  0  0  0  0  0  0  0
  119.2186  123.7849   84.3965 C   0  0  0  0  0  0  0  0  0  0  0  0
  120.3636  124.0852   83.5969 O   0  0  0  0  0  0  0  0  0  0  0  0
  121.0259  122.9351   83.0536 C   0  0  0  0  0  0  0  0  0  0  0  0
  121.5371  123.1794   81.6365 C   0  0  0  0  0  0  0  0  0  0  0  0
  120.5223  123.4446   80.7822 F   0  0  0  0  0  0  0  0  0  0  0  0
  122.4143  124.2039   81.5778 F   0  0  0  0  0  0  0  0  0  0  0  0
  122.1707  122.0752   81.1704 F   0  0  0  0  0  0  0  0  0  0  0  0
  122.4349  122.1983   87.7344 C   0  0  0  0  0  0  0  0  0  0  0  0
  123.5003  122.7936   87.0440 C   0  0  0  0  0  0  0  0  0  0  0  0
  124.8209  122.5112   87.4123 C   0  0  0  0  0  0  0  0  0  0  0  0
  125.0738  121.6242   88.4689 C   0  0  0  0  0  0  0  0  0  0  0  0
  126.4601  121.3280   88.8548 N   0  0  0  0  0  4  0  0  0  0  0  0
  126.7304  120.1657   89.1867 O   0  0  0  0  0  0  0  0  0  0  0  0
  127.2748  122.2614   88.8288 O   0  0  0  0  0  1  0  0  0  0  0  0
  124.0155  121.0134   89.1533 C   0  0  0  0  0  0  0  0  0  0  0  0
  122.6990  121.2995   88.7790 C   0  0  0  0  0  0  0  0  0  0  0  0
  121.5780  123.3815   85.5996 H   0  0  0  0  0  0  0  0  0  0  0  0
  118.7063  123.1461   86.3909 H   0  0  0  0  0  0  0  0  0  0  0  0
  119.4565  124.7991   86.2689 H   0  0  0  0  0  0  0  0  0  0  0  0
  118.8420  122.7955   84.0978 H   0  0  0  0  0  0  0  0  0  0  0  0
  118.4953  124.5946   84.2199 H   0  0  0  0  0  0  0  0  0  0  0  0
  121.8795  122.6802   83.6989 H   0  0  0  0  0  0  0  0  0  0  0  0
  120.2957  122.1135   83.0120 H   0  0  0  0  0  0  0  0  0  0  0  0
  123.2980  123.4837   86.2116 H   0  0  0  0  0  0  0  0  0  0  0  0
  125.6570  122.9830   86.8752 H   0  0  0  0  0  0  0  0  0  0  0  0
  124.2183  120.3146   89.9783 H   0  0  0  0  0  0  0  0  0  0  0  0
  121.8640  120.8163   89.3076 H   0  0  0  0  0  0  0  0  0  0  0  0
  1  2  2  0
  2  3  1  0
  3  4  1  0
  4  5  1  0
  5  6  1  0
  6  7  1  0
  7  8  1  0
  8  9  1  0
  8 10  1  0
  8 11  1  0
  2 12  1  0
 12 13  2  0
 13 14  1  0
 14 15  2  0
 15 16  1  0
 16 17  2  0
 16 18  1  0
 15 19  1  0
 19 20  2  0
 20 12  1  0
  3 21  1  0
  4 22  1  0
  4 23  1  0
  5 24  1  0
  5 25  1  0
  7 26  1  0
  7 27  1  0
 13 28  1  0
 14 29  1  0
 19 30  1  0
 20 31  1  0
M  CHG  2  16   1  18  -1
M  END
>  <loss>  (7) 
0.3961843252182007

>  <score>  (7) 
5.3029375076293945

$$$$
HYRUGIUWLDAVFJ-UHFFFAOYSA-N
     RDKit          3D

 31 31  0  0  0  0  0  0  0  0999 V2000
  120.1663  122.3661   88.2481 O   0  0  0  0  0  0  0  0  0  0  0  0
  121.0470  122.5360   87.4142 C   0  0  0  0  0  0  0  0  0  0  0  0
  120.8096  123.0400   86.1527 N   0  0  0  0  0  0  0  0  0  0  0  0
  119.4617  123.3419   85.7060 C   0  0  0  0  0  0  0  0  0  0  0  0
  119.4125  124.4021   84.5998 C   0  0  0  0  0  0  0  0  0  0  0  0
  119.5302  123.8048   83.3058 O   0  0  0  0  0  0  0  0  0  0  0  0
  120.7538  123.0755   83.1297 C   0  0  0  0  0  0  0  0  0  0  0  0
  121.3818  123.3165   81.7592 C   0  0  0  0  0  0  0  0  0  0  0  0
  122.0263  122.1986   81.3431 F   0  0  0  0  0  0  0  0  0  0  0  0
  120.4497  123.6110   80.8266 F   0  0  0  0  0  0  0  0  0  0  0  0
  122.2881  124.3167   81.7853 F   0  0  0  0  0  0  0  0  0  0  0  0
  122.4647  122.2348   87.7565 C   0  0  0  0  0  0  0  0  0  0  0  0
  123.5347  122.9296   87.1746 C   0  0  0  0  0  0  0  0  0  0  0  0
  124.8523  122.6072   87.5198 C   0  0  0  0  0  0  0  0  0  0  0  0
  125.0975  121.5811   88.4439 C   0  0  0  0  0  0  0  0  0  0  0  0
  126.4803  121.2436   88.8070 N   0  0  0  0  0  4  0  0  0  0  0  0
  127.3815  121.9812   88.3833 O   0  0  0  0  0  0  0  0  0  0  0  0
  126.6627  120.2460   89.5184 O   0  0  0  0  0  1  0  0  0  0  0  0
  124.0348  120.8719   89.0180 C   0  0  0  0  0  0  0  0  0  0  0  0
  122.7214  121.1990   88.6673 C   0  0  0  0  0  0  0  0  0  0  0  0
  121.6025  123.2050   85.5162 H   0  0  0  0  0  0  0  0  0  0  0  0
  119.0052  122.4170   85.3237 H   0  0  0  0  0  0  0  0  0  0  0  0
  118.9153  123.7474   86.5704 H   0  0  0  0  0  0  0  0  0  0  0  0
  118.4551  124.9403   84.6609 H   0  0  0  0  0  0  0  0  0  0  0  0
  120.2558  125.0938   84.7423 H   0  0  0  0  0  0  0  0  0  0  0  0
  121.4673  123.3897   83.9057 H   0  0  0  0  0  0  0  0  0  0  0  0
  120.5200  122.0035   83.2081 H   0  0  0  0  0  0  0  0  0  0  0  0
  123.3383  123.7295   86.4455 H   0  0  0  0  0  0  0  0  0  0  0  0
  125.6918  123.1563   87.0683 H   0  0  0  0  0  0  0  0  0  0  0  0
  124.2319  120.0644   89.7385 H   0  0  0  0  0  0  0  0  0  0  0  0
  121.8831  120.6401   89.1089 H   0  0  0  0  0  0  0  0  0  0  0  0
  1  2  2  0
  2  3  1  0
  3  4  1  0
  4  5  1  0
  5  6  1  0
  6  7  1  0
  7  8  1  0
  8  9  1  0
  8 10  1  0
  8 11  1  0
  2 12  1  0
 12 13  2  0
 13 14  1  0
 14 15  2  0
 15 16  1  0
 16 17  2  0
 16 18  1  0
 15 19  1  0
 19 20  2  0
 20 12  1  0
  3 21  1  0
  4 22  1  0
  4 23  1  0
  5 24  1  0
  5 25  1  0
  7 26  1  0
  7 27  1  0
 13 28  1  0
 14 29  1  0
 19 30  1  0
 20 31  1  0
M  CHG  2  16   1  18  -1
M  END
>  <loss>  (8) 
0.4005204439163208

>  <score>  (8) 
5.321106433868408

$$$$
HYRUGIUWLDAVFJ-UHFFFAOYSA-N
     RDKit          3D

 31 31  0  0  0  0  0  0  0  0999 V2000
  120.1289  122.0716   88.1010 O   0  0  0  0  0  0  0  0  0  0  0  0
  121.0283  122.4470   87.3593 C   0  0  0  0  0  0  0  0  0  0  0  0
  120.8037  123.0908   86.1607 N   0  0  0  0  0  0  0  0  0  0  0  0
  119.5264  123.7179   85.8730 C   0  0  0  0  0  0  0  0  0  0  0  0
  119.2208  123.8117   84.3737 C   0  0  0  0  0  0  0  0  0  0  0  0
  120.3911  124.1579   83.6283 O   0  0  0  0  0  0  0  0  0  0  0  0
  121.0724  123.0175   83.0849 C   0  0  0  0  0  0  0  0  0  0  0  0
  121.5397  123.2491   81.6500 C   0  0  0  0  0  0  0  0  0  0  0  0
  121.9641  122.0811   81.1080 F   0  0  0  0  0  0  0  0  0  0  0  0
  122.5754  124.1149   81.5948 F   0  0  0  0  0  0  0  0  0  0  0  0
  120.5489  123.7205   80.8636 F   0  0  0  0  0  0  0  0  0  0  0  0
  122.4488  122.1751   87.7148 C   0  0  0  0  0  0  0  0  0  0  0  0
  123.5158  122.7296   86.9934 C   0  0  0  0  0  0  0  0  0  0  0  0
  124.8358  122.4536   87.3683 C   0  0  0  0  0  0  0  0  0  0  0  0
  125.0861  121.6268   88.4732 C   0  0  0  0  0  0  0  0  0  0  0  0
  126.4715  121.3362   88.8659 N   0  0  0  0  0  4  0  0  0  0  0  0
  127.3459  122.1471   88.5290 O   0  0  0  0  0  0  0  0  0  0  0  0
  126.6838  120.2965   89.5051 O   0  0  0  0  0  1  0  0  0  0  0  0
  124.0259  121.0815   89.2084 C   0  0  0  0  0  0  0  0  0  0  0  0
  122.7100  121.3627   88.8284 C   0  0  0  0  0  0  0  0  0  0  0  0
  121.5553  123.1275   85.4573 H   0  0  0  0  0  0  0  0  0  0  0  0
  118.7320  123.1291   86.3551 H   0  0  0  0  0  0  0  0  0  0  0  0
  119.5736  124.7462   86.2608 H   0  0  0  0  0  0  0  0  0  0  0  0
  118.8463  122.8389   84.0222 H   0  0  0  0  0  0  0  0  0  0  0  0
  118.4652  124.5963   84.2205 H   0  0  0  0  0  0  0  0  0  0  0  0
  121.9497  122.7983   83.7113 H   0  0  0  0  0  0  0  0  0  0  0  0
  120.3640  122.1761   83.0757 H   0  0  0  0  0  0  0  0  0  0  0  0
  123.3151  123.3826   86.1313 H   0  0  0  0  0  0  0  0  0  0  0  0
  125.6731  122.8832   86.7989 H   0  0  0  0  0  0  0  0  0  0  0  0
  124.2268  120.4376   90.0773 H   0  0  0  0  0  0  0  0  0  0  0  0
  121.8733  120.9438   89.4068 H   0  0  0  0  0  0  0  0  0  0  0  0
  1  2  2  0
  2  3  1  0
  3  4  1  0
  4  5  1  0
  5  6  1  0
  6  7  1  0
  7  8  1  0
  8  9  1  0
  8 10  1  0
  8 11  1  0
  2 12  1  0
 12 13  2  0
 13 14  1  0
 14 15  2  0
 15 16  1  0
 16 17  2  0
 16 18  1  0
 15 19  1  0
 19 20  2  0
 20 12  1  0
  3 21  1  0
  4 22  1  0
  4 23  1  0
  5 24  1  0
  5 25  1  0
  7 26  1  0
  7 27  1  0
 13 28  1  0
 14 29  1  0
 19 30  1  0
 20 31  1  0
M  CHG  2  16   1  18  -1
M  END
>  <loss>  (9) 
0.39544543623924255

>  <score>  (9) 
5.292309284210205

$$$$
HYRUGIUWLDAVFJ-UHFFFAOYSA-N
     RDKit          3D

 31 31  0  0  0  0  0  0  0  0999 V2000
  120.1103  122.0082   88.1438 O   0  0  0  0  0  0  0  0  0  0  0  0
  121.0227  122.4162   87.4357 C   0  0  0  0  0  0  0  0  0  0  0  0
  120.8191  123.1219   86.2691 N   0  0  0  0  0  0  0  0  0  0  0  0
  119.5539  123.7813   86.0018 C   0  0  0  0  0  0  0  0  0  0  0  0
  119.1642  123.7669   84.5209 C   0  0  0  0  0  0  0  0  0  0  0  0
  120.3237  124.0581   83.7370 O   0  0  0  0  0  0  0  0  0  0  0  0
  120.7425  122.9635   82.9047 C   0  0  0  0  0  0  0  0  0  0  0  0
  121.5620  123.3226   81.6650 C   0  0  0  0  0  0  0  0  0  0  0  0
  120.8125  123.9689   80.7442 F   0  0  0  0  0  0  0  0  0  0  0  0
  122.0327  122.1976   81.0744 F   0  0  0  0  0  0  0  0  0  0  0  0
  122.6243  124.0980   81.9654 F   0  0  0  0  0  0  0  0  0  0  0  0
  122.4364  122.1183   87.7971 C   0  0  0  0  0  0  0  0  0  0  0  0
  123.4496  122.8772   87.1924 C   0  0  0  0  0  0  0  0  0  0  0  0
  124.7934  122.6338   87.4925 C   0  0  0  0  0  0  0  0  0  0  0  0
  125.1232  121.6164   88.3970 C   0  0  0  0  0  0  0  0  0  0  0  0
  126.5327  121.3542   88.7175 N   0  0  0  0  0  4  0  0  0  0  0  0
  127.3938  121.8337   87.9671 O   0  0  0  0  0  0  0  0  0  0  0  0
  126.7756  120.6721   89.7232 O   0  0  0  0  0  1  0  0  0  0  0  0
  124.1188  120.8412   88.9947 C   0  0  0  0  0  0  0  0  0  0  0  0
  122.7759  121.0917   88.6900 C   0  0  0  0  0  0  0  0  0  0  0  0
  121.5779  123.1823   85.5752 H   0  0  0  0  0  0  0  0  0  0  0  0
  118.7661  123.2706   86.5751 H   0  0  0  0  0  0  0  0  0  0  0  0
  119.6663  124.8344   86.2988 H   0  0  0  0  0  0  0  0  0  0  0  0
  118.7748  122.7743   84.2506 H   0  0  0  0  0  0  0  0  0  0  0  0
  118.3859  124.5208   84.3318 H   0  0  0  0  0  0  0  0  0  0  0  0
  121.3511  122.2874   83.5231 H   0  0  0  0  0  0  0  0  0  0  0  0
  119.8129  122.5188   82.5198 H   0  0  0  0  0  0  0  0  0  0  0  0
  123.1849  123.6696   86.4768 H   0  0  0  0  0  0  0  0  0  0  0  0
  125.5847  123.2361   87.0224 H   0  0  0  0  0  0  0  0  0  0  0  0
  124.3852  120.0400   89.6997 H   0  0  0  0  0  0  0  0  0  0  0  0
  121.9852  120.4820   89.1518 H   0  0  0  0  0  0  0  0  0  0  0  0
  1  2  2  0
  2  3  1  0
  3  4  1  0
  4  5  1  0
  5  6  1  0
  6  7  1  0
  7  8  1  0
  8  9  1  0
  8 10  1  0
  8 11  1  0
  2 12  1  0
 12 13  2  0
 13 14  1  0
 14 15  2  0
 15 16  1  0
 16 17  2  0
 16 18  1  0
 15 19  1  0
 19 20  2  0
 20 12  1  0
  3 21  1  0
  4 22  1  0
  4 23  1  0
  5 24  1  0
  5 25  1  0
  7 26  1  0
  7 27  1  0
 13 28  1  0
 14 29  1  0
 19 30  1  0
 20 31  1  0
M  CHG  2  16   1  18  -1
M  END
>  <loss>  (10) 
0.39230239391326904

>  <score>  (10) 
5.212921142578125

$$$$
HYRUGIUWLDAVFJ-UHFFFAOYSA-N
     RDKit          3D

 31 31  0  0  0  0  0  0  0  0999 V2000
  120.1328  122.2389   88.2500 O   0  0  0  0  0  0  0  0  0  0  0  0
  121.0107  122.4147   87.4143 C   0  0  0  0  0  0  0  0  0  0  0  0
  120.7623  122.8793   86.1399 N   0  0  0  0  0  0  0  0  0  0  0  0
  119.4488  123.3683   85.7616 C   0  0  0  0  0  0  0  0  0  0  0  0
  119.4739  124.2871   84.5347 C   0  0  0  0  0  0  0  0  0  0  0  0
  119.9208  123.5846   83.3719 O   0  0  0  0  0  0  0  0  0  0  0  0
  121.3347  123.6980   83.1524 C   0  0  0  0  0  0  0  0  0  0  0  0
  121.7266  123.3778   81.7120 C   0  0  0  0  0  0  0  0  0  0  0  0
  123.0433  123.6395   81.5222 F   0  0  0  0  0  0  0  0  0  0  0  0
  121.5321  122.0734   81.4189 F   0  0  0  0  0  0  0  0  0  0  0  0
  121.0366  124.1214   80.8212 F   0  0  0  0  0  0  0  0  0  0  0  0
  122.4359  122.1657   87.7678 C   0  0  0  0  0  0  0  0  0  0  0  0
  123.4881  122.8518   87.1447 C   0  0  0  0  0  0  0  0  0  0  0  0
  124.8136  122.5795   87.5026 C   0  0  0  0  0  0  0  0  0  0  0  0
  125.0846  121.6119   88.4811 C   0  0  0  0  0  0  0  0  0  0  0  0
  126.4757  121.3271   88.8575 N   0  0  0  0  0  4  0  0  0  0  0  0
  127.3452  122.1313   88.4931 O   0  0  0  0  0  0  0  0  0  0  0  0
  126.6959  120.3040   89.5203 O   0  0  0  0  0  1  0  0  0  0  0  0
  124.0400  120.9112   89.0971 C   0  0  0  0  0  0  0  0  0  0  0  0
  122.7185  121.1880   88.7335 C   0  0  0  0  0  0  0  0  0  0  0  0
  121.5220  122.8794   85.4443 H   0  0  0  0  0  0  0  0  0  0  0  0
  118.8059  122.5043   85.5377 H   0  0  0  0  0  0  0  0  0  0  0  0
  119.0668  123.9618   86.6053 H   0  0  0  0  0  0  0  0  0  0  0  0
  118.4594  124.6718   84.3537 H   0  0  0  0  0  0  0  0  0  0  0  0
  120.1724  125.1135   84.7324 H   0  0  0  0  0  0  0  0  0  0  0  0
  121.6468  124.7273   83.3831 H   0  0  0  0  0  0  0  0  0  0  0  0
  121.8356  122.9692   83.8066 H   0  0  0  0  0  0  0  0  0  0  0  0
  123.2715  123.6054   86.3733 H   0  0  0  0  0  0  0  0  0  0  0  0
  125.6391  123.1220   87.0186 H   0  0  0  0  0  0  0  0  0  0  0  0
  124.2573  120.1496   89.8605 H   0  0  0  0  0  0  0  0  0  0  0  0
  121.8944  120.6351   89.2082 H   0  0  0  0  0  0  0  0  0  0  0  0
  1  2  2  0
  2  3  1  0
  3  4  1  0
  4  5  1  0
  5  6  1  0
  6  7  1  0
  7  8  1  0
  8  9  1  0
  8 10  1  0
  8 11  1  0
  2 12  1  0
 12 13  2  0
 13 14  1  0
 14 15  2  0
 15 16  1  0
 16 17  2  0
 16 18  1  0
 15 19  1  0
 19 20  2  0
 20 12  1  0
  3 21  1  0
  4 22  1  0
  4 23  1  0
  5 24  1  0
  5 25  1  0
  7 26  1  0
  7 27  1  0
 13 28  1  0
 14 29  1  0
 19 30  1  0
 20 31  1  0
M  CHG  2  16   1  18  -1
M  END
>  <loss>  (11) 
0.40074488520622253

>  <score>  (11) 
5.2495622634887695

$$$$
HYRUGIUWLDAVFJ-UHFFFAOYSA-N
     RDKit          3D

 31 31  0  0  0  0  0  0  0  0999 V2000
  120.1566  122.0966   88.1989 O   0  0  0  0  0  0  0  0  0  0  0  0
  121.0341  122.4518   87.4222 C   0  0  0  0  0  0  0  0  0  0  0  0
  120.7878  123.1349   86.2509 N   0  0  0  0  0  0  0  0  0  0  0  0
  119.5138  123.7929   85.9791 C   0  0  0  0  0  0  0  0  0  0  0  0
  119.1443  123.7664   84.4897 C   0  0  0  0  0  0  0  0  0  0  0  0
  120.2021  124.1402   83.6056 O   0  0  0  0  0  0  0  0  0  0  0  0
  121.0146  123.0470   83.1570 C   0  0  0  0  0  0  0  0  0  0  0  0
  121.5134  123.2470   81.7285 C   0  0  0  0  0  0  0  0  0  0  0  0
  120.4874  123.3088   80.8492 F   0  0  0  0  0  0  0  0  0  0  0  0
  122.2492  124.3711   81.5955 F   0  0  0  0  0  0  0  0  0  0  0  0
  122.2947  122.2038   81.3551 F   0  0  0  0  0  0  0  0  0  0  0  0
  122.4622  122.1888   87.7534 C   0  0  0  0  0  0  0  0  0  0  0  0
  123.5051  122.9671   87.2313 C   0  0  0  0  0  0  0  0  0  0  0  0
  124.8331  122.6766   87.5653 C   0  0  0  0  0  0  0  0  0  0  0  0
  125.1163  121.5991   88.4173 C   0  0  0  0  0  0  0  0  0  0  0  0
  126.5103  121.2946   88.7673 N   0  0  0  0  0  4  0  0  0  0  0  0
  126.7591  120.1672   89.2159 O   0  0  0  0  0  0  0  0  0  0  0  0
  127.3529  122.1870   88.5961 O   0  0  0  0  0  1  0  0  0  0  0  0
  124.0814  120.8073   88.9305 C   0  0  0  0  0  0  0  0  0  0  0  0
  122.7574  121.1028   88.5915 C   0  0  0  0  0  0  0  0  0  0  0  0
  121.5315  123.1830   85.5400 H   0  0  0  0  0  0  0  0  0  0  0  0
  118.7238  123.2804   86.5477 H   0  0  0  0  0  0  0  0  0  0  0  0
  119.6109  124.8463   86.2806 H   0  0  0  0  0  0  0  0  0  0  0  0
  118.8283  122.7445   84.2332 H   0  0  0  0  0  0  0  0  0  0  0  0
  118.3476  124.5126   84.3539 H   0  0  0  0  0  0  0  0  0  0  0  0
  121.8831  122.9535   83.8256 H   0  0  0  0  0  0  0  0  0  0  0  0
  120.3960  122.1376   83.1742 H   0  0  0  0  0  0  0  0  0  0  0  0
  123.2794  123.8073   86.5581 H   0  0  0  0  0  0  0  0  0  0  0  0
  125.6512  123.2909   87.1611 H   0  0  0  0  0  0  0  0  0  0  0  0
  124.3081  119.9601   89.5945 H   0  0  0  0  0  0  0  0  0  0  0  0
  121.9410  120.4793   88.9849 H   0  0  0  0  0  0  0  0  0  0  0  0
  1  2  2  0
  2  3  1  0
  3  4  1  0
  4  5  1  0
  5  6  1  0
  6  7  1  0
  7  8  1  0
  8  9  1  0
  8 10  1  0
  8 11  1  0
  2 12  1  0
 12 13  2  0
 13 14  1  0
 14 15  2  0
 15 16  1  0
 16 17  2  0
 16 18  1  0
 15 19  1  0
 19 20  2  0
 20 12  1  0
  3 21  1  0
  4 22  1  0
  4 23  1  0
  5 24  1  0
  5 25  1  0
  7 26  1  0
  7 27  1  0
 13 28  1  0
 14 29  1  0
 19 30  1  0
 20 31  1  0
M  CHG  2  16   1  18  -1
M  END
>  <loss>  (12) 
0.38961613178253174

>  <score>  (12) 
5.188723087310791

$$$$
HYRUGIUWLDAVFJ-UHFFFAOYSA-N
     RDKit          3D

 31 31  0  0  0  0  0  0  0  0999 V2000
  120.1752  122.0983   88.2157 O   0  0  0  0  0  0  0  0  0  0  0  0
  121.0550  122.3624   87.4057 C   0  0  0  0  0  0  0  0  0  0  0  0
  120.8031  122.8996   86.1608 N   0  0  0  0  0  0  0  0  0  0  0  0
  119.4855  123.3987   85.8109 C   0  0  0  0  0  0  0  0  0  0  0  0
  119.4736  124.2273   84.5212 C   0  0  0  0  0  0  0  0  0  0  0  0
  119.9477  123.4614   83.4104 O   0  0  0  0  0  0  0  0  0  0  0  0
  121.3460  123.6518   83.1489 C   0  0  0  0  0  0  0  0  0  0  0  0
  121.7289  123.2624   81.7232 C   0  0  0  0  0  0  0  0  0  0  0  0
  122.9704  123.7248   81.4353 F   0  0  0  0  0  0  0  0  0  0  0  0
  121.7543  121.9214   81.5607 F   0  0  0  0  0  0  0  0  0  0  0  0
  120.8834  123.7855   80.8100 F   0  0  0  0  0  0  0  0  0  0  0  0
  122.4847  122.1462   87.7623 C   0  0  0  0  0  0  0  0  0  0  0  0
  123.5224  122.8547   87.1398 C   0  0  0  0  0  0  0  0  0  0  0  0
  124.8530  122.6130   87.5006 C   0  0  0  0  0  0  0  0  0  0  0  0
  125.1439  121.6537   88.4815 C   0  0  0  0  0  0  0  0  0  0  0  0
  126.5404  121.4009   88.8610 N   0  0  0  0  0  4  0  0  0  0  0  0
  127.3969  122.2052   88.4671 O   0  0  0  0  0  0  0  0  0  0  0  0
  126.7777  120.4031   89.5556 O   0  0  0  0  0  1  0  0  0  0  0  0
  124.1142  120.9308   89.0970 C   0  0  0  0  0  0  0  0  0  0  0  0
  122.7875  121.1770   88.7305 C   0  0  0  0  0  0  0  0  0  0  0  0
  121.5630  122.9475   85.4672 H   0  0  0  0  0  0  0  0  0  0  0  0
  118.8103  122.5401   85.6806 H   0  0  0  0  0  0  0  0  0  0  0  0
  119.1610  124.0612   86.6268 H   0  0  0  0  0  0  0  0  0  0  0  0
  118.4446  124.5576   84.3163 H   0  0  0  0  0  0  0  0  0  0  0  0
  120.1389  125.0928   84.6569 H   0  0  0  0  0  0  0  0  0  0  0  0
  121.5934  124.7123   83.3041 H   0  0  0  0  0  0  0  0  0  0  0  0
  121.9077  123.0026   83.8367 H   0  0  0  0  0  0  0  0  0  0  0  0
  123.2904  123.6018   86.3665 H   0  0  0  0  0  0  0  0  0  0  0  0
  125.6670  123.1730   87.0171 H   0  0  0  0  0  0  0  0  0  0  0  0
  124.3472  120.1757   89.8623 H   0  0  0  0  0  0  0  0  0  0  0  0
  121.9752  120.6067   89.2047 H   0  0  0  0  0  0  0  0  0  0  0  0
  1  2  2  0
  2  3  1  0
  3  4  1  0
  4  5  1  0
  5  6  1  0
  6  7  1  0
  7  8  1  0
  8  9  1  0
  8 10  1  0
  8 11  1  0
  2 12  1  0
 12 13  2  0
 13 14  1  0
 14 15  2  0
 15 16  1  0
 16 17  2  0
 16 18  1  0
 15 19  1  0
 19 20  2  0
 20 12  1  0
  3 21  1  0
  4 22  1  0
  4 23  1  0
  5 24  1  0
  5 25  1  0
  7 26  1  0
  7 27  1  0
 13 28  1  0
 14 29  1  0
 19 30  1  0
 20 31  1  0
M  CHG  2  16   1  18  -1
M  END
>  <loss>  (13) 
0.4000972807407379

>  <score>  (13) 
5.237340450286865

$$$$
HYRUGIUWLDAVFJ-UHFFFAOYSA-N
     RDKit          3D

 31 31  0  0  0  0  0  0  0  0999 V2000
  120.1066  121.9484   88.0302 O   0  0  0  0  0  0  0  0  0  0  0  0
  121.0048  122.4675   87.3793 C   0  0  0  0  0  0  0  0  0  0  0  0
  120.7783  123.2882   86.2944 N   0  0  0  0  0  0  0  0  0  0  0  0
  119.4356  123.7120   85.9409 C   0  0  0  0  0  0  0  0  0  0  0  0
  119.2244  123.8600   84.4297 C   0  0  0  0  0  0  0  0  0  0  0  0
  120.4578  124.1342   83.7599 O   0  0  0  0  0  0  0  0  0  0  0  0
  121.0326  122.9751   83.1383 C   0  0  0  0  0  0  0  0  0  0  0  0
  121.4610  123.2409   81.6972 C   0  0  0  0  0  0  0  0  0  0  0  0
  122.2848  122.2523   81.2702 F   0  0  0  0  0  0  0  0  0  0  0  0
  122.1396  124.4036   81.5834 F   0  0  0  0  0  0  0  0  0  0  0  0
  120.4077  123.2788   80.8536 F   0  0  0  0  0  0  0  0  0  0  0  0
  122.4277  122.1887   87.7194 C   0  0  0  0  0  0  0  0  0  0  0  0
  123.4879  122.8590   87.0927 C   0  0  0  0  0  0  0  0  0  0  0  0
  124.8102  122.5709   87.4500 C   0  0  0  0  0  0  0  0  0  0  0  0
  125.0693  121.6150   88.4431 C   0  0  0  0  0  0  0  0  0  0  0  0
  126.4573  121.3119   88.8172 N   0  0  0  0  0  4  0  0  0  0  0  0
  127.3575  121.9338   88.2355 O   0  0  0  0  0  0  0  0  0  0  0  0
  126.6450  120.4501   89.6869 O   0  0  0  0  0  1  0  0  0  0  0  0
  124.0155  120.9522   89.0848 C   0  0  0  0  0  0  0  0  0  0  0  0
  122.6972  121.2462   88.7231 C   0  0  0  0  0  0  0  0  0  0  0  0
  121.5756  123.6060   85.7251 H   0  0  0  0  0  0  0  0  0  0  0  0
  118.7224  122.9660   86.3216 H   0  0  0  0  0  0  0  0  0  0  0  0
  119.2780  124.7035   86.3905 H   0  0  0  0  0  0  0  0  0  0  0  0
  118.8008  122.9254   84.0333 H   0  0  0  0  0  0  0  0  0  0  0  0
  118.5382  124.7017   84.2545 H   0  0  0  0  0  0  0  0  0  0  0  0
  121.9145  122.6642   83.7176 H   0  0  0  0  0  0  0  0  0  0  0  0
  120.2645  122.1879   83.1206 H   0  0  0  0  0  0  0  0  0  0  0  0
  123.2801  123.6125   86.3188 H   0  0  0  0  0  0  0  0  0  0  0  0
  125.6425  123.0920   86.9542 H   0  0  0  0  0  0  0  0  0  0  0  0
  124.2231  120.2068   89.8666 H   0  0  0  0  0  0  0  0  0  0  0  0
  121.8652  120.7347   89.2293 H   0  0  0  0  0  0  0  0  0  0  0  0
  1  2  2  0
  2  3  1  0
  3  4  1  0
  4  5  1  0
  5  6  1  0
  6  7  1  0
  7  8  1  0
  8  9  1  0
  8 10  1  0
  8 11  1  0
  2 12  1  0
 12 13  2  0
 13 14  1  0
 14 15  2  0
 15 16  1  0
 16 17  2  0
 16 18  1  0
 15 19  1  0
 19 20  2  0
 20 12  1  0
  3 21  1  0
  4 22  1  0
  4 23  1  0
  5 24  1  0
  5 25  1  0
  7 26  1  0
  7 27  1  0
 13 28  1  0
 14 29  1  0
 19 30  1  0
 20 31  1  0
M  CHG  2  16   1  18  -1
M  END
>  <loss>  (14) 
0.40193015336990356

>  <score>  (14) 
5.229501247406006

$$$$
HYRUGIUWLDAVFJ-UHFFFAOYSA-N
     RDKit          3D

 31 31  0  0  0  0  0  0  0  0999 V2000
  120.1273  122.0892   88.0750 O   0  0  0  0  0  0  0  0  0  0  0  0
  121.0273  122.4895   87.3471 C   0  0  0  0  0  0  0  0  0  0  0  0
  120.8035  123.1720   86.1699 N   0  0  0  0  0  0  0  0  0  0  0  0
  119.4893  123.6955   85.8435 C   0  0  0  0  0  0  0  0  0  0  0  0
  119.2173  123.7547   84.3360 C   0  0  0  0  0  0  0  0  0  0  0  0
  120.3935  124.1268   83.6127 O   0  0  0  0  0  0  0  0  0  0  0  0
  121.0996  123.0030   83.0664 C   0  0  0  0  0  0  0  0  0  0  0  0
  121.6323  123.2782   81.6623 C   0  0  0  0  0  0  0  0  0  0  0  0
  122.3053  122.1946   81.2027 F   0  0  0  0  0  0  0  0  0  0  0  0
  122.4938  124.3188   81.6492 F   0  0  0  0  0  0  0  0  0  0  0  0
  120.6396  123.5367   80.7847 F   0  0  0  0  0  0  0  0  0  0  0  0
  122.4475  122.2074   87.6952 C   0  0  0  0  0  0  0  0  0  0  0  0
  123.5091  122.9337   87.1368 C   0  0  0  0  0  0  0  0  0  0  0  0
  124.8287  122.6399   87.4995 C   0  0  0  0  0  0  0  0  0  0  0  0
  125.0835  121.6215   88.4296 C   0  0  0  0  0  0  0  0  0  0  0  0
  126.4686  121.3124   88.8093 N   0  0  0  0  0  4  0  0  0  0  0  0
  127.3620  122.0531   88.3746 O   0  0  0  0  0  0  0  0  0  0  0  0
  126.6614  120.3280   89.5361 O   0  0  0  0  0  1  0  0  0  0  0  0
  124.0280  120.9018   89.0036 C   0  0  0  0  0  0  0  0  0  0  0  0
  122.7124  121.2019   88.6371 C   0  0  0  0  0  0  0  0  0  0  0  0
  121.5823  123.3129   85.5107 H   0  0  0  0  0  0  0  0  0  0  0  0
  118.7307  123.0499   86.3101 H   0  0  0  0  0  0  0  0  0  0  0  0
  119.4461  124.7270   86.2231 H   0  0  0  0  0  0  0  0  0  0  0  0
  118.8830  122.7646   83.9925 H   0  0  0  0  0  0  0  0  0  0  0  0
  118.4407  124.5116   84.1515 H   0  0  0  0  0  0  0  0  0  0  0  0
  121.9472  122.7638   83.7254 H   0  0  0  0  0  0  0  0  0  0  0  0
  120.3927  122.1629   82.9987 H   0  0  0  0  0  0  0  0  0  0  0  0
  123.3045  123.7358   86.4124 H   0  0  0  0  0  0  0  0  0  0  0  0
  125.6622  123.2051   87.0569 H   0  0  0  0  0  0  0  0  0  0  0  0
  124.2321  120.1073   89.7364 H   0  0  0  0  0  0  0  0  0  0  0  0
  121.8789  120.6454   89.0906 H   0  0  0  0  0  0  0  0  0  0  0  0
  1  2  2  0
  2  3  1  0
  3  4  1  0
  4  5  1  0
  5  6  1  0
  6  7  1  0
  7  8  1  0
  8  9  1  0
  8 10  1  0
  8 11  1  0
  2 12  1  0
 12 13  2  0
 13 14  1  0
 14 15  2  0
 15 16  1  0
 16 17  2  0
 16 18  1  0
 15 19  1  0
 19 20  2  0
 20 12  1  0
  3 21  1  0
  4 22  1  0
  4 23  1  0
  5 24  1  0
  5 25  1  0
  7 26  1  0
  7 27  1  0
 13 28  1  0
 14 29  1  0
 19 30  1  0
 20 31  1  0
M  CHG  2  16   1  18  -1
M  END
>  <loss>  (15) 
0.4002787172794342

>  <score>  (15) 
5.208992958068848

$$$$
HYRUGIUWLDAVFJ-UHFFFAOYSA-N
     RDKit          3D

 31 31  0  0  0  0  0  0  0  0999 V2000
  120.1280  122.2939   88.2186 O   0  0  0  0  0  0  0  0  0  0  0  0
  121.0108  122.4388   87.3821 C   0  0  0  0  0  0  0  0  0  0  0  0
  120.7725  122.8766   86.0963 N   0  0  0  0  0  0  0  0  0  0  0  0
  119.4467  123.2964   85.6795 C   0  0  0  0  0  0  0  0  0  0  0  0
  119.4642  124.2919   84.5139 C   0  0  0  0  0  0  0  0  0  0  0  0
  119.8886  123.6617   83.3023 O   0  0  0  0  0  0  0  0  0  0  0  0
  121.3098  123.7112   83.1079 C   0  0  0  0  0  0  0  0  0  0  0  0
  121.7116  123.3836   81.6719 C   0  0  0  0  0  0  0  0  0  0  0  0
  123.0518  123.5248   81.5233 F   0  0  0  0  0  0  0  0  0  0  0  0
  121.4055  122.1088   81.3453 F   0  0  0  0  0  0  0  0  0  0  0  0
  121.1195  124.2052   80.7794 F   0  0  0  0  0  0  0  0  0  0  0  0
  122.4314  122.1797   87.7463 C   0  0  0  0  0  0  0  0  0  0  0  0
  123.4921  122.8732   87.1459 C   0  0  0  0  0  0  0  0  0  0  0  0
  124.8129  122.5911   87.5130 C   0  0  0  0  0  0  0  0  0  0  0  0
  125.0710  121.6064   88.4778 C   0  0  0  0  0  0  0  0  0  0  0  0
  126.4573  121.3112   88.8639 N   0  0  0  0  0  4  0  0  0  0  0  0
  127.3381  122.0970   88.4865 O   0  0  0  0  0  0  0  0  0  0  0  0
  126.6625  120.2985   89.5471 O   0  0  0  0  0  1  0  0  0  0  0  0
  124.0181  120.8983   89.0709 C   0  0  0  0  0  0  0  0  0  0  0  0
  122.7013  121.1851   88.6982 C   0  0  0  0  0  0  0  0  0  0  0  0
  121.5486  122.9062   85.4198 H   0  0  0  0  0  0  0  0  0  0  0  0
  118.8799  122.4060   85.3698 H   0  0  0  0  0  0  0  0  0  0  0  0
  118.9821  123.8062   86.5364 H   0  0  0  0  0  0  0  0  0  0  0  0
  118.4512  124.6964   84.3722 H   0  0  0  0  0  0  0  0  0  0  0  0
  120.1733  125.0977   84.7544 H   0  0  0  0  0  0  0  0  0  0  0  0
  121.6650  124.7232   83.3521 H   0  0  0  0  0  0  0  0  0  0  0  0
  121.7651  122.9553   83.7647 H   0  0  0  0  0  0  0  0  0  0  0  0
  123.2856  123.6404   86.3851 H   0  0  0  0  0  0  0  0  0  0  0  0
  125.6449  123.1393   87.0469 H   0  0  0  0  0  0  0  0  0  0  0  0
  124.2253  120.1233   89.8235 H   0  0  0  0  0  0  0  0  0  0  0  0
  121.8708  120.6266   89.1547 H   0  0  0  0  0  0  0  0  0  0  0  0
  1  2  2  0
  2  3  1  0
  3  4  1  0
  4  5  1  0
  5  6  1  0
  6  7  1  0
  7  8  1  0
  8  9  1  0
  8 10  1  0
  8 11  1  0
  2 12  1  0
 12 13  2  0
 13 14  1  0
 14 15  2  0
 15 16  1  0
 16 17  2  0
 16 18  1  0
 15 19  1  0
 19 20  2  0
 20 12  1  0
  3 21  1  0
  4 22  1  0
  4 23  1  0
  5 24  1  0
  5 25  1  0
  7 26  1  0
  7 27  1  0
 13 28  1  0
 14 29  1  0
 19 30  1  0
 20 31  1  0
M  CHG  2  16   1  18  -1
M  END
>  <loss>  (16) 
0.4002317488193512

>  <score>  (16) 
5.146477699279785

$$$$
HYRUGIUWLDAVFJ-UHFFFAOYSA-N
     RDKit          3D

 31 31  0  0  0  0  0  0  0  0999 V2000
  120.0906  122.1902   88.2505 O   0  0  0  0  0  0  0  0  0  0  0  0
  120.9949  122.4377   87.4622 C   0  0  0  0  0  0  0  0  0  0  0  0
  120.7810  122.9488   86.1999 N   0  0  0  0  0  0  0  0  0  0  0  0
  119.4782  123.4522   85.8047 C   0  0  0  0  0  0  0  0  0  0  0  0
  119.5192  124.3099   84.5367 C   0  0  0  0  0  0  0  0  0  0  0  0
  119.9713  123.5008   83.4482 O   0  0  0  0  0  0  0  0  0  0  0  0
  121.3181  123.7920   83.0385 C   0  0  0  0  0  0  0  0  0  0  0  0
  121.7438  123.2662   81.6675 C   0  0  0  0  0  0  0  0  0  0  0  0
  121.6718  121.9176   81.6085 F   0  0  0  0  0  0  0  0  0  0  0  0
  123.0311  123.6059   81.4162 F   0  0  0  0  0  0  0  0  0  0  0  0
  120.9885  123.7739   80.6717 F   0  0  0  0  0  0  0  0  0  0  0  0
  122.4073  122.1456   87.8332 C   0  0  0  0  0  0  0  0  0  0  0  0
  123.4226  122.8956   87.2209 C   0  0  0  0  0  0  0  0  0  0  0  0
  124.7653  122.6569   87.5295 C   0  0  0  0  0  0  0  0  0  0  0  0
  125.0920  121.6533   88.4503 C   0  0  0  0  0  0  0  0  0  0  0  0
  126.5003  121.3962   88.7798 N   0  0  0  0  0  4  0  0  0  0  0  0
  127.3200  122.2962   88.5506 O   0  0  0  0  0  0  0  0  0  0  0  0
  126.7830  120.2947   89.2723 O   0  0  0  0  0  1  0  0  0  0  0  0
  124.0855  120.8869   89.0558 C   0  0  0  0  0  0  0  0  0  0  0  0
  122.7437  121.1325   88.7425 C   0  0  0  0  0  0  0  0  0  0  0  0
  121.5592  122.9738   85.5255 H   0  0  0  0  0  0  0  0  0  0  0  0
  118.8125  122.5951   85.6250 H   0  0  0  0  0  0  0  0  0  0  0  0
  119.1159  124.0945   86.6208 H   0  0  0  0  0  0  0  0  0  0  0  0
  118.5122  124.6949   84.3180 H   0  0  0  0  0  0  0  0  0  0  0  0
  120.2038  125.1586   84.6813 H   0  0  0  0  0  0  0  0  0  0  0  0
  121.4349  124.8857   83.0277 H   0  0  0  0  0  0  0  0  0  0  0  0
  121.9613  123.2703   83.7624 H   0  0  0  0  0  0  0  0  0  0  0  0
  123.1604  123.6771   86.4925 H   0  0  0  0  0  0  0  0  0  0  0  0
  125.5582  123.2523   87.0534 H   0  0  0  0  0  0  0  0  0  0  0  0
  124.3495  120.0964   89.7737 H   0  0  0  0  0  0  0  0  0  0  0  0
  121.9515  120.5296   89.2105 H   0  0  0  0  0  0  0  0  0  0  0  0
  1  2  2  0
  2  3  1  0
  3  4  1  0
  4  5  1  0
  5  6  1  0
  6  7  1  0
  7  8  1  0
  8  9  1  0
  8 10  1  0
  8 11  1  0
  2 12  1  0
 12 13  2  0
 13 14  1  0
 14 15  2  0
 15 16  1  0
 16 17  2  0
 16 18  1  0
 15 19  1  0
 19 20  2  0
 20 12  1  0
  3 21  1  0
  4 22  1  0
  4 23  1  0
  5 24  1  0
  5 25  1  0
  7 26  1  0
  7 27  1  0
 13 28  1  0
 14 29  1  0
 19 30  1  0
 20 31  1  0
M  CHG  2  16   1  18  -1
M  END
>  <loss>  (17) 
0.4057655930519104

>  <score>  (17) 
5.128695487976074

$$$$
HYRUGIUWLDAVFJ-UHFFFAOYSA-N
     RDKit          3D

 31 31  0  0  0  0  0  0  0  0999 V2000
  120.1321  122.1625   88.1853 O   0  0  0  0  0  0  0  0  0  0  0  0
  121.0171  122.4853   87.4030 C   0  0  0  0  0  0  0  0  0  0  0  0
  120.7832  123.1296   86.2074 N   0  0  0  0  0  0  0  0  0  0  0  0
  119.5022  123.7519   85.8887 C   0  0  0  0  0  0  0  0  0  0  0  0
  119.1979  123.7341   84.3845 C   0  0  0  0  0  0  0  0  0  0  0  0
  120.3054  124.0709   83.5476 O   0  0  0  0  0  0  0  0  0  0  0  0
  121.0159  122.9420   83.0209 C   0  0  0  0  0  0  0  0  0  0  0  0
  121.6535  123.2418   81.6671 C   0  0  0  0  0  0  0  0  0  0  0  0
  120.7179  123.4985   80.7244 F   0  0  0  0  0  0  0  0  0  0  0  0
  122.4967  124.2949   81.7199 F   0  0  0  0  0  0  0  0  0  0  0  0
  122.3667  122.1716   81.2382 F   0  0  0  0  0  0  0  0  0  0  0  0
  122.4412  122.2247   87.7528 C   0  0  0  0  0  0  0  0  0  0  0  0
  123.4851  123.0363   87.2864 C   0  0  0  0  0  0  0  0  0  0  0  0
  124.8093  122.7469   87.6357 C   0  0  0  0  0  0  0  0  0  0  0  0
  125.0881  121.6373   88.4471 C   0  0  0  0  0  0  0  0  0  0  0  0
  126.4781  121.3341   88.8132 N   0  0  0  0  0  4  0  0  0  0  0  0
  126.7593  120.1591   89.0863 O   0  0  0  0  0  0  0  0  0  0  0  0
  127.2851  122.2743   88.8308 O   0  0  0  0  0  1  0  0  0  0  0  0
  124.0525  120.8127   88.9042 C   0  0  0  0  0  0  0  0  0  0  0  0
  122.7323  121.1074   88.5502 C   0  0  0  0  0  0  0  0  0  0  0  0
  121.5417  123.1736   85.5120 H   0  0  0  0  0  0  0  0  0  0  0  0
  118.7049  123.2079   86.4163 H   0  0  0  0  0  0  0  0  0  0  0  0
  119.5534  124.8036   86.2069 H   0  0  0  0  0  0  0  0  0  0  0  0
  118.8600  122.7226   84.1152 H   0  0  0  0  0  0  0  0  0  0  0  0
  118.4329  124.5058   84.2131 H   0  0  0  0  0  0  0  0  0  0  0  0
  121.8075  122.6594   83.7304 H   0  0  0  0  0  0  0  0  0  0  0  0
  120.2935  122.1245   82.8801 H   0  0  0  0  0  0  0  0  0  0  0  0
  123.2630  123.9018   86.6449 H   0  0  0  0  0  0  0  0  0  0  0  0
  125.6280  123.3871   87.2754 H   0  0  0  0  0  0  0  0  0  0  0  0
  124.2758  119.9406   89.5364 H   0  0  0  0  0  0  0  0  0  0  0  0
  121.9157  120.4584   88.8994 H   0  0  0  0  0  0  0  0  0  0  0  0
  1  2  2  0
  2  3  1  0
  3  4  1  0
  4  5  1  0
  5  6  1  0
  6  7  1  0
  7  8  1  0
  8  9  1  0
  8 10  1  0
  8 11  1  0
  2 12  1  0
 12 13  2  0
 13 14  1  0
 14 15  2  0
 15 16  1  0
 16 17  2  0
 16 18  1  0
 15 19  1  0
 19 20  2  0
 20 12  1  0
  3 21  1  0
  4 22  1  0
  4 23  1  0
  5 24  1  0
  5 25  1  0
  7 26  1  0
  7 27  1  0
 13 28  1  0
 14 29  1  0
 19 30  1  0
 20 31  1  0
M  CHG  2  16   1  18  -1
M  END
>  <loss>  (18) 
0.4040233790874481

>  <score>  (18) 
5.115864276885986

$$$$
HYRUGIUWLDAVFJ-UHFFFAOYSA-N
     RDKit          3D

 31 31  0  0  0  0  0  0  0  0999 V2000
  120.1375  122.1389   88.1753 O   0  0  0  0  0  0  0  0  0  0  0  0
  121.0213  122.4587   87.3903 C   0  0  0  0  0  0  0  0  0  0  0  0
  120.7849  123.0913   86.1890 N   0  0  0  0  0  0  0  0  0  0  0  0
  119.5198  123.7529   85.8860 C   0  0  0  0  0  0  0  0  0  0  0  0
  119.1991  123.7494   84.3851 C   0  0  0  0  0  0  0  0  0  0  0  0
  120.2941  124.1062   83.5401 O   0  0  0  0  0  0  0  0  0  0  0  0
  121.0342  122.9910   83.0253 C   0  0  0  0  0  0  0  0  0  0  0  0
  121.6866  123.3023   81.6812 C   0  0  0  0  0  0  0  0  0  0  0  0
  120.7608  123.5410   80.7242 F   0  0  0  0  0  0  0  0  0  0  0  0
  122.5089  124.3712   81.7461 F   0  0  0  0  0  0  0  0  0  0  0  0
  122.4264  122.2457   81.2639 F   0  0  0  0  0  0  0  0  0  0  0  0
  122.4464  122.2074   87.7427 C   0  0  0  0  0  0  0  0  0  0  0  0
  123.4859  123.0251   87.2772 C   0  0  0  0  0  0  0  0  0  0  0  0
  124.8114  122.7445   87.6290 C   0  0  0  0  0  0  0  0  0  0  0  0
  125.0958  121.6375   88.4420 C   0  0  0  0  0  0  0  0  0  0  0  0
  126.4871  121.3434   88.8107 N   0  0  0  0  0  4  0  0  0  0  0  0
  126.7574  120.1883   89.1669 O   0  0  0  0  0  0  0  0  0  0  0  0
  127.3061  122.2712   88.7468 O   0  0  0  0  0  1  0  0  0  0  0  0
  124.0647  120.8068   88.8983 C   0  0  0  0  0  0  0  0  0  0  0  0
  122.7432  121.0928   88.5418 C   0  0  0  0  0  0  0  0  0  0  0  0
  121.5297  123.0974   85.4776 H   0  0  0  0  0  0  0  0  0  0  0  0
  118.7122  123.2313   86.4205 H   0  0  0  0  0  0  0  0  0  0  0  0
  119.6060  124.8015   86.2068 H   0  0  0  0  0  0  0  0  0  0  0  0
  118.8678  122.7377   84.1079 H   0  0  0  0  0  0  0  0  0  0  0  0
  118.4250  124.5156   84.2310 H   0  0  0  0  0  0  0  0  0  0  0  0
  121.8203  122.7242   83.7471 H   0  0  0  0  0  0  0  0  0  0  0  0
  120.3301  122.1595   82.8742 H   0  0  0  0  0  0  0  0  0  0  0  0
  123.2594  123.8885   86.6344 H   0  0  0  0  0  0  0  0  0  0  0  0
  125.6266  123.3895   87.2693 H   0  0  0  0  0  0  0  0  0  0  0  0
  124.2925  119.9368   89.5317 H   0  0  0  0  0  0  0  0  0  0  0  0
  121.9301  120.4390   88.8904 H   0  0  0  0  0  0  0  0  0  0  0  0
  1  2  2  0
  2  3  1  0
  3  4  1  0
  4  5  1  0
  5  6  1  0
  6  7  1  0
  7  8  1  0
  8  9  1  0
  8 10  1  0
  8 11  1  0
  2 12  1  0
 12 13  2  0
 13 14  1  0
 14 15  2  0
 15 16  1  0
 16 17  2  0
 16 18  1  0
 15 19  1  0
 19 20  2  0
 20 12  1  0
  3 21  1  0
  4 22  1  0
  4 23  1  0
  5 24  1  0
  5 25  1  0
  7 26  1  0
  7 27  1  0
 13 28  1  0
 14 29  1  0
 19 30  1  0
 20 31  1  0
M  CHG  2  16   1  18  -1
M  END
>  <loss>  (19) 
0.40409815311431885

>  <score>  (19) 
5.049263954162598

$$$$
HYRUGIUWLDAVFJ-UHFFFAOYSA-N
     RDKit          3D

 31 31  0  0  0  0  0  0  0  0999 V2000
  120.0825  122.0596   88.0264 O   0  0  0  0  0  0  0  0  0  0  0  0
  121.0196  122.4593   87.3467 C   0  0  0  0  0  0  0  0  0  0  0  0
  120.8612  123.2428   86.2229 N   0  0  0  0  0  0  0  0  0  0  0  0
  119.5975  123.8968   85.9355 C   0  0  0  0  0  0  0  0  0  0  0  0
  119.2879  123.9862   84.4367 C   0  0  0  0  0  0  0  0  0  0  0  0
  120.1178  123.0979   83.6836 O   0  0  0  0  0  0  0  0  0  0  0  0
  121.2865  123.7355   83.1471 C   0  0  0  0  0  0  0  0  0  0  0  0
  121.4677  123.4575   81.6569 C   0  0  0  0  0  0  0  0  0  0  0  0
  122.1724  124.4628   81.0816 F   0  0  0  0  0  0  0  0  0  0  0  0
  122.1542  122.3140   81.4413 F   0  0  0  0  0  0  0  0  0  0  0  0
  120.2863  123.3730   81.0092 F   0  0  0  0  0  0  0  0  0  0  0  0
  122.4184  122.1394   87.7454 C   0  0  0  0  0  0  0  0  0  0  0  0
  122.7157  121.1310   88.6733 C   0  0  0  0  0  0  0  0  0  0  0  0
  124.0451  120.8700   89.0252 C   0  0  0  0  0  0  0  0  0  0  0  0
  125.0773  121.6269   88.4516 C   0  0  0  0  0  0  0  0  0  0  0  0
  126.4726  121.3520   88.8201 N   0  0  0  0  0  4  0  0  0  0  0  0
  126.6786  120.4888   89.6849 O   0  0  0  0  0  0  0  0  0  0  0  0
  127.3592  121.9951   88.2415 O   0  0  0  0  0  1  0  0  0  0  0  0
  124.7877  122.6461   87.5357 C   0  0  0  0  0  0  0  0  0  0  0  0
  123.4571  122.9016   87.1900 C   0  0  0  0  0  0  0  0  0  0  0  0
  121.6534  123.3661   85.5763 H   0  0  0  0  0  0  0  0  0  0  0  0
  118.7918  123.3302   86.4252 H   0  0  0  0  0  0  0  0  0  0  0  0
  119.6699  124.9267   86.3151 H   0  0  0  0  0  0  0  0  0  0  0  0
  118.2337  123.7190   84.2715 H   0  0  0  0  0  0  0  0  0  0  0  0
  119.4842  125.0151   84.1011 H   0  0  0  0  0  0  0  0  0  0  0  0
  121.1960  124.8217   83.2956 H   0  0  0  0  0  0  0  0  0  0  0  0
  122.1625  123.3289   83.6736 H   0  0  0  0  0  0  0  0  0  0  0  0
  121.9028  120.5440   89.1255 H   0  0  0  0  0  0  0  0  0  0  0  0
  124.2792  120.0749   89.7483 H   0  0  0  0  0  0  0  0  0  0  0  0
  125.6000  123.2406   87.0921 H   0  0  0  0  0  0  0  0  0  0  0  0
  123.2231  123.7062   86.4773 H   0  0  0  0  0  0  0  0  0  0  0  0
  1  2  2  0
  2  3  1  0
  3  4  1  0
  4  5  1  0
  5  6  1  0
  6  7  1  0
  7  8  1  0
  8  9  1  0
  8 10  1  0
  8 11  1  0
  2 12  1  0
 12 13  2  0
 13 14  1  0
 14 15  2  0
 15 16  1  0
 16 17  2  0
 16 18  1  0
 15 19  1  0
 19 20  2  0
 20 12  1  0
  3 21  1  0
  4 22  1  0
  4 23  1  0
  5 24  1  0
  5 25  1  0
  7 26  1  0
  7 27  1  0
 13 28  1  0
 14 29  1  0
 19 30  1  0
 20 31  1  0
M  CHG  2  16   1  18  -1
M  END
>  <loss>  (20) 
0.3987395465373993

>  <score>  (20) 
4.965325355529785

$$$$
HYRUGIUWLDAVFJ-UHFFFAOYSA-N
     RDKit          3D

 31 31  0  0  0  0  0  0  0  0999 V2000
  120.1479  122.1110   88.2047 O   0  0  0  0  0  0  0  0  0  0  0  0
  121.0328  122.4370   87.4232 C   0  0  0  0  0  0  0  0  0  0  0  0
  120.7850  123.0050   86.1917 N   0  0  0  0  0  0  0  0  0  0  0  0
  119.4749  123.5342   85.8593 C   0  0  0  0  0  0  0  0  0  0  0  0
  119.4023  124.1318   84.4512 C   0  0  0  0  0  0  0  0  0  0  0  0
  120.0937  123.2662   83.5477 O   0  0  0  0  0  0  0  0  0  0  0  0
  121.3686  123.7788   83.1253 C   0  0  0  0  0  0  0  0  0  0  0  0
  121.8003  123.4444   81.6974 C   0  0  0  0  0  0  0  0  0  0  0  0
  121.6474  122.1286   81.4275 F   0  0  0  0  0  0  0  0  0  0  0  0
  123.1127  123.7343   81.5262 F   0  0  0  0  0  0  0  0  0  0  0  0
  121.1063  124.1478   80.7789 F   0  0  0  0  0  0  0  0  0  0  0  0
  122.4599  122.1841   87.7661 C   0  0  0  0  0  0  0  0  0  0  0  0
  122.8607  120.8605   88.0024 C   0  0  0  0  0  0  0  0  0  0  0  0
  124.1876  120.5696   88.3337 C   0  0  0  0  0  0  0  0  0  0  0  0
  125.1156  121.6135   88.4384 C   0  0  0  0  0  0  0  0  0  0  0  0
  126.5116  121.3162   88.7863 N   0  0  0  0  0  4  0  0  0  0  0  0
  126.8126  120.1346   89.0045 O   0  0  0  0  0  0  0  0  0  0  0  0
  127.3058  122.2662   88.8360 O   0  0  0  0  0  1  0  0  0  0  0  0
  124.7216  122.9417   88.2201 C   0  0  0  0  0  0  0  0  0  0  0  0
  123.3918  123.2248   87.8878 C   0  0  0  0  0  0  0  0  0  0  0  0
  121.5425  123.0547   85.4956 H   0  0  0  0  0  0  0  0  0  0  0  0
  118.7404  122.7184   85.9305 H   0  0  0  0  0  0  0  0  0  0  0  0
  119.2620  124.3469   86.5694 H   0  0  0  0  0  0  0  0  0  0  0  0
  118.3506  124.2245   84.1426 H   0  0  0  0  0  0  0  0  0  0  0  0
  119.8672  125.1287   84.4436 H   0  0  0  0  0  0  0  0  0  0  0  0
  121.3346  124.8746   83.2159 H   0  0  0  0  0  0  0  0  0  0  0  0
  122.1086  123.2888   83.7750 H   0  0  0  0  0  0  0  0  0  0  0  0
  122.1257  120.0457   87.9264 H   0  0  0  0  0  0  0  0  0  0  0  0
  124.5000  119.5298   88.5105 H   0  0  0  0  0  0  0  0  0  0  0  0
  125.4543  123.7572   88.3096 H   0  0  0  0  0  0  0  0  0  0  0  0
  123.0771  124.2657   87.7218 H   0  0  0  0  0  0  0  0  0  0  0  0
  1  2  2  0
  2  3  1  0
  3  4  1  0
  4  5  1  0
  5  6  1  0
  6  7  1  0
  7  8  1  0
  8  9  1  0
  8 10  1  0
  8 11  1  0
  2 12  1  0
 12 13  2  0
 13 14  1  0
 14 15  2  0
 15 16  1  0
 16 17  2  0
 16 18  1  0
 15 19  1  0
 19 20  2  0
 20 12  1  0
  3 21  1  0
  4 22  1  0
  4 23  1  0
  5 24  1  0
  5 25  1  0
  7 26  1  0
  7 27  1  0
 13 28  1  0
 14 29  1  0
 19 30  1  0
 20 31  1  0
M  CHG  2  16   1  18  -1
M  END
>  <loss>  (21) 
0.41558435559272766

>  <score>  (21) 
4.956812381744385

$$$$
HYRUGIUWLDAVFJ-UHFFFAOYSA-N
     RDKit          3D

 31 31  0  0  0  0  0  0  0  0999 V2000
  120.1075  122.1093   88.1883 O   0  0  0  0  0  0  0  0  0  0  0  0
  121.0049  122.3943   87.4049 C   0  0  0  0  0  0  0  0  0  0  0  0
  120.7767  122.8935   86.1403 N   0  0  0  0  0  0  0  0  0  0  0  0
  119.4761  123.4161   85.7631 C   0  0  0  0  0  0  0  0  0  0  0  0
  119.5149  124.2868   84.5040 C   0  0  0  0  0  0  0  0  0  0  0  0
  120.0788  123.5242   83.4343 O   0  0  0  0  0  0  0  0  0  0  0  0
  121.4481  123.8585   83.1518 C   0  0  0  0  0  0  0  0  0  0  0  0
  121.9260  123.6269   81.7182 C   0  0  0  0  0  0  0  0  0  0  0  0
  121.4693  122.4538   81.2257 F   0  0  0  0  0  0  0  0  0  0  0  0
  123.2794  123.5729   81.6802 F   0  0  0  0  0  0  0  0  0  0  0  0
  121.5360  124.6151   80.8868 F   0  0  0  0  0  0  0  0  0  0  0  0
  122.4264  122.1641   87.7847 C   0  0  0  0  0  0  0  0  0  0  0  0
  122.9752  120.8925   87.5609 C   0  0  0  0  0  0  0  0  0  0  0  0
  124.3032  120.6224   87.9051 C   0  0  0  0  0  0  0  0  0  0  0  0
  125.0823  121.6307   88.4864 C   0  0  0  0  0  0  0  0  0  0  0  0
  126.4784  121.3550   88.8511 N   0  0  0  0  0  4  0  0  0  0  0  0
  126.7251  120.2818   89.4186 O   0  0  0  0  0  0  0  0  0  0  0  0
  127.3268  122.2116   88.5646 O   0  0  0  0  0  1  0  0  0  0  0  0
  124.5385  122.9005   88.7293 C   0  0  0  0  0  0  0  0  0  0  0  0
  123.2086  123.1636   88.3810 C   0  0  0  0  0  0  0  0  0  0  0  0
  121.5423  122.8957   85.4513 H   0  0  0  0  0  0  0  0  0  0  0  0
  118.7988  122.5687   85.5807 H   0  0  0  0  0  0  0  0  0  0  0  0
  119.1291  124.0538   86.5895 H   0  0  0  0  0  0  0  0  0  0  0  0
  118.4940  124.5982   84.2380 H   0  0  0  0  0  0  0  0  0  0  0  0
  120.1264  125.1826   84.6875 H   0  0  0  0  0  0  0  0  0  0  0  0
  121.5857  124.9254   83.3815 H   0  0  0  0  0  0  0  0  0  0  0  0
  122.0477  123.1760   83.7719 H   0  0  0  0  0  0  0  0  0  0  0  0
  122.3562  120.1021   87.1113 H   0  0  0  0  0  0  0  0  0  0  0  0
  124.7325  119.6265   87.7208 H   0  0  0  0  0  0  0  0  0  0  0  0
  125.1543  123.6861   89.1914 H   0  0  0  0  0  0  0  0  0  0  0  0
  122.7763  124.1562   88.5754 H   0  0  0  0  0  0  0  0  0  0  0  0
  1  2  2  0
  2  3  1  0
  3  4  1  0
  4  5  1  0
  5  6  1  0
  6  7  1  0
  7  8  1  0
  8  9  1  0
  8 10  1  0
  8 11  1  0
  2 12  1  0
 12 13  2  0
 13 14  1  0
 14 15  2  0
 15 16  1  0
 16 17  2  0
 16 18  1  0
 15 19  1  0
 19 20  2  0
 20 12  1  0
  3 21  1  0
  4 22  1  0
  4 23  1  0
  5 24  1  0
  5 25  1  0
  7 26  1  0
  7 27  1  0
 13 28  1  0
 14 29  1  0
 19 30  1  0
 20 31  1  0
M  CHG  2  16   1  18  -1
M  END
>  <loss>  (22) 
0.41486960649490356

>  <score>  (22) 
4.906115531921387

$$$$
HYRUGIUWLDAVFJ-UHFFFAOYSA-N
     RDKit          3D

 31 31  0  0  0  0  0  0  0  0999 V2000
  120.1234  121.9864   88.1006 O   0  0  0  0  0  0  0  0  0  0  0  0
  121.0220  122.4623   87.4179 C   0  0  0  0  0  0  0  0  0  0  0  0
  120.7959  123.2185   86.2871 N   0  0  0  0  0  0  0  0  0  0  0  0
  119.4549  123.6335   85.9169 C   0  0  0  0  0  0  0  0  0  0  0  0
  119.2208  123.6476   84.4020 C   0  0  0  0  0  0  0  0  0  0  0  0
  120.4070  124.0274   83.6992 O   0  0  0  0  0  0  0  0  0  0  0  0
  121.0102  122.9410   82.9810 C   0  0  0  0  0  0  0  0  0  0  0  0
  121.5404  123.3705   81.6152 C   0  0  0  0  0  0  0  0  0  0  0  0
  121.8733  122.2783   80.8843 F   0  0  0  0  0  0  0  0  0  0  0  0
  122.6517  124.1307   81.7266 F   0  0  0  0  0  0  0  0  0  0  0  0
  120.6211  124.0620   80.9087 F   0  0  0  0  0  0  0  0  0  0  0  0
  122.4446  122.1977   87.7703 C   0  0  0  0  0  0  0  0  0  0  0  0
  123.4012  123.2217   87.8229 C   0  0  0  0  0  0  0  0  0  0  0  0
  124.7258  122.9284   88.1672 C   0  0  0  0  0  0  0  0  0  0  0  0
  125.0899  121.6075   88.4670 C   0  0  0  0  0  0  0  0  0  0  0  0
  126.4804  121.2997   88.8271 N   0  0  0  0  0  4  0  0  0  0  0  0
  127.3144  122.2108   88.7277 O   0  0  0  0  0  0  0  0  0  0  0  0
  126.7372  120.1477   89.2032 O   0  0  0  0  0  1  0  0  0  0  0  0
  124.1371  120.5815   88.4318 C   0  0  0  0  0  0  0  0  0  0  0  0
  122.8156  120.8825   88.0880 C   0  0  0  0  0  0  0  0  0  0  0  0
  121.5924  123.4938   85.6948 H   0  0  0  0  0  0  0  0  0  0  0  0
  118.7356  122.9386   86.3749 H   0  0  0  0  0  0  0  0  0  0  0  0
  119.3220  124.6644   86.2767 H   0  0  0  0  0  0  0  0  0  0  0  0
  118.9174  122.6416   84.0763 H   0  0  0  0  0  0  0  0  0  0  0  0
  118.4329  124.3817   84.1779 H   0  0  0  0  0  0  0  0  0  0  0  0
  121.8462  122.5448   83.5761 H   0  0  0  0  0  0  0  0  0  0  0  0
  120.2362  122.1770   82.8156 H   0  0  0  0  0  0  0  0  0  0  0  0
  123.1101  124.2573   87.5932 H   0  0  0  0  0  0  0  0  0  0  0  0
  125.4779  123.7303   88.2024 H   0  0  0  0  0  0  0  0  0  0  0  0
  124.4259  119.5478   88.6725 H   0  0  0  0  0  0  0  0  0  0  0  0
  122.0612  120.0822   88.0666 H   0  0  0  0  0  0  0  0  0  0  0  0
  1  2  2  0
  2  3  1  0
  3  4  1  0
  4  5  1  0
  5  6  1  0
  6  7  1  0
  7  8  1  0
  8  9  1  0
  8 10  1  0
  8 11  1  0
  2 12  1  0
 12 13  2  0
 13 14  1  0
 14 15  2  0
 15 16  1  0
 16 17  2  0
 16 18  1  0
 15 19  1  0
 19 20  2  0
 20 12  1  0
  3 21  1  0
  4 22  1  0
  4 23  1  0
  5 24  1  0
  5 25  1  0
  7 26  1  0
  7 27  1  0
 13 28  1  0
 14 29  1  0
 19 30  1  0
 20 31  1  0
M  CHG  2  16   1  18  -1
M  END
>  <loss>  (23) 
0.41670912504196167

>  <score>  (23) 
4.896923542022705

$$$$
HYRUGIUWLDAVFJ-UHFFFAOYSA-N
     RDKit          3D

 31 31  0  0  0  0  0  0  0  0999 V2000
  120.1208  121.9834   88.1284 O   0  0  0  0  0  0  0  0  0  0  0  0
  121.0137  122.4309   87.4199 C   0  0  0  0  0  0  0  0  0  0  0  0
  120.7874  123.1996   86.2987 N   0  0  0  0  0  0  0  0  0  0  0  0
  119.4581  123.6735   85.9272 C   0  0  0  0  0  0  0  0  0  0  0  0
  119.2750  123.7793   84.4070 C   0  0  0  0  0  0  0  0  0  0  0  0
  120.4709  124.0666   83.6805 O   0  0  0  0  0  0  0  0  0  0  0  0
  121.0209  122.9453   82.9758 C   0  0  0  0  0  0  0  0  0  0  0  0
  121.5674  123.3365   81.6056 C   0  0  0  0  0  0  0  0  0  0  0  0
  120.6814  124.0904   80.9153 F   0  0  0  0  0  0  0  0  0  0  0  0
  122.7257  124.0243   81.6933 F   0  0  0  0  0  0  0  0  0  0  0  0
  121.8088  122.2277   80.8638 F   0  0  0  0  0  0  0  0  0  0  0  0
  122.4367  122.1899   87.7874 C   0  0  0  0  0  0  0  0  0  0  0  0
  123.3832  123.2237   87.8256 C   0  0  0  0  0  0  0  0  0  0  0  0
  124.7117  122.9471   88.1693 C   0  0  0  0  0  0  0  0  0  0  0  0
  125.0935  121.6308   88.4671 C   0  0  0  0  0  0  0  0  0  0  0  0
  126.4879  121.3411   88.8276 N   0  0  0  0  0  4  0  0  0  0  0  0
  126.7802  120.1701   89.1059 O   0  0  0  0  0  0  0  0  0  0  0  0
  127.2872  122.2881   88.8353 O   0  0  0  0  0  1  0  0  0  0  0  0
  124.1576  120.5901   88.4160 C   0  0  0  0  0  0  0  0  0  0  0  0
  122.8327  120.8739   88.0707 C   0  0  0  0  0  0  0  0  0  0  0  0
  121.5874  123.4493   85.6999 H   0  0  0  0  0  0  0  0  0  0  0  0
  118.7097  122.9720   86.3246 H   0  0  0  0  0  0  0  0  0  0  0  0
  119.3325  124.6813   86.3497 H   0  0  0  0  0  0  0  0  0  0  0  0
  118.8745  122.8218   84.0427 H   0  0  0  0  0  0  0  0  0  0  0  0
  118.5952  124.6266   84.2341 H   0  0  0  0  0  0  0  0  0  0  0  0
  121.8387  122.5175   83.5743 H   0  0  0  0  0  0  0  0  0  0  0  0
  120.2131  122.2149   82.8210 H   0  0  0  0  0  0  0  0  0  0  0  0
  123.0813  124.2537   87.5851 H   0  0  0  0  0  0  0  0  0  0  0  0
  125.4532  123.7588   88.2057 H   0  0  0  0  0  0  0  0  0  0  0  0
  124.4622  119.5584   88.6455 H   0  0  0  0  0  0  0  0  0  0  0  0
  122.0951  120.0593   88.0209 H   0  0  0  0  0  0  0  0  0  0  0  0
  1  2  2  0
  2  3  1  0
  3  4  1  0
  4  5  1  0
  5  6  1  0
  6  7  1  0
  7  8  1  0
  8  9  1  0
  8 10  1  0
  8 11  1  0
  2 12  1  0
 12 13  2  0
 13 14  1  0
 14 15  2  0
 15 16  1  0
 16 17  2  0
 16 18  1  0
 15 19  1  0
 19 20  2  0
 20 12  1  0
  3 21  1  0
  4 22  1  0
  4 23  1  0
  5 24  1  0
  5 25  1  0
  7 26  1  0
  7 27  1  0
 13 28  1  0
 14 29  1  0
 19 30  1  0
 20 31  1  0
M  CHG  2  16   1  18  -1
M  END
>  <loss>  (24) 
0.4175923764705658

>  <score>  (24) 
4.805435657501221

$$$$
HYRUGIUWLDAVFJ-UHFFFAOYSA-N
     RDKit          3D

 31 31  0  0  0  0  0  0  0  0999 V2000
  120.1657  122.0598   88.4819 O   0  0  0  0  0  0  0  0  0  0  0  0
  120.9967  122.0633   87.5808 C   0  0  0  0  0  0  0  0  0  0  0  0
  120.6671  122.2529   86.2549 N   0  0  0  0  0  0  0  0  0  0  0  0
  119.5432  123.0916   85.8848 C   0  0  0  0  0  0  0  0  0  0  0  0
  119.9412  124.2610   84.9781 C   0  0  0  0  0  0  0  0  0  0  0  0
  119.5157  125.5117   85.5230 O   0  0  0  0  0  0  0  0  0  0  0  0
  120.4630  126.0596   86.4565 C   0  0  0  0  0  0  0  0  0  0  0  0
  119.9785  127.3732   87.0638 C   0  0  0  0  0  0  0  0  0  0  0  0
  118.8460  127.2037   87.7821 F   0  0  0  0  0  0  0  0  0  0  0  0
  120.9155  127.8764   87.9032 F   0  0  0  0  0  0  0  0  0  0  0  0
  119.7412  128.3089   86.1186 F   0  0  0  0  0  0  0  0  0  0  0  0
  122.4435  121.9013   87.8947 C   0  0  0  0  0  0  0  0  0  0  0  0
  123.4371  122.0271   86.9131 C   0  0  0  0  0  0  0  0  0  0  0  0
  124.7847  121.8582   87.2515 C   0  0  0  0  0  0  0  0  0  0  0  0
  125.1362  121.5549   88.5748 C   0  0  0  0  0  0  0  0  0  0  0  0
  126.5506  121.3777   88.9303 N   0  0  0  0  0  4  0  0  0  0  0  0
  127.3990  121.6858   88.0813 O   0  0  0  0  0  0  0  0  0  0  0  0
  126.8105  120.9349   90.0576 O   0  0  0  0  0  1  0  0  0  0  0  0
  124.1490  121.4131   89.5583 C   0  0  0  0  0  0  0  0  0  0  0  0
  122.8048  121.5823   89.2123 C   0  0  0  0  0  0  0  0  0  0  0  0
  121.2246  121.7941   85.5204 H   0  0  0  0  0  0  0  0  0  0  0  0
  118.8039  122.4731   85.3549 H   0  0  0  0  0  0  0  0  0  0  0  0
  119.1327  123.5191   86.8115 H   0  0  0  0  0  0  0  0  0  0  0  0
  121.0356  124.2723   84.8681 H   0  0  0  0  0  0  0  0  0  0  0  0
  119.4522  124.1243   84.0022 H   0  0  0  0  0  0  0  0  0  0  0  0
  120.6237  125.3326   87.2662 H   0  0  0  0  0  0  0  0  0  0  0  0
  121.3963  126.2631   85.9110 H   0  0  0  0  0  0  0  0  0  0  0  0
  123.1568  122.2589   85.8750 H   0  0  0  0  0  0  0  0  0  0  0  0
  125.5647  121.9628   86.4829 H   0  0  0  0  0  0  0  0  0  0  0  0
  124.4288  121.1707   90.5941 H   0  0  0  0  0  0  0  0  0  0  0  0
  122.0248  121.4645   89.9789 H   0  0  0  0  0  0  0  0  0  0  0  0
  1  2  2  0
  2  3  1  0
  3  4  1  0
  4  5  1  0
  5  6  1  0
  6  7  1  0
  7  8  1  0
  8  9  1  0
  8 10  1  0
  8 11  1  0
  2 12  1  0
 12 13  2  0
 13 14  1  0
 14 15  2  0
 15 16  1  0
 16 17  2  0
 16 18  1  0
 15 19  1  0
 19 20  2  0
 20 12  1  0
  3 21  1  0
  4 22  1  0
  4 23  1  0
  5 24  1  0
  5 25  1  0
  7 26  1  0
  7 27  1  0
 13 28  1  0
 14 29  1  0
 19 30  1  0
 20 31  1  0
M  CHG  2  16   1  18  -1
M  END
>  <loss>  (25) 
0.5395852327346802

>  <score>  (25) 
1.7301654815673828

$$$$
