JBLQSXYHCNASCW-UHFFFAOYSA-N
     RDKit          3D

 20 20  0  0  0  0  0  0  0  0999 V2000
  126.9901  121.5191   85.1542 N   0  0  0  0  0  0  0  0  0  0  0  0
  126.4598  121.5625   86.1852 C   0  0  0  0  0  0  0  0  0  0  0  0
  125.7407  121.6405   87.4230 C   0  0  0  0  0  0  0  0  0  0  0  0
  126.4178  121.2855   88.6008 C   0  0  0  0  0  0  0  0  0  0  0  0
  125.7662  121.3434   89.8290 C   0  0  0  0  0  0  0  0  0  0  0  0
  124.4394  121.7554   89.8821 C   0  0  0  0  0  0  0  0  0  0  0  0
  123.7586  122.1107   88.7113 C   0  0  0  0  0  0  0  0  0  0  0  0
  124.3919  122.0609   87.4638 C   0  0  0  0  0  0  0  0  0  0  0  0
  123.7338  122.4140   86.2528 N   0  0  0  0  0  0  0  0  0  0  0  0
  122.5113  121.9377   85.7574 C   0  0  0  0  0  0  0  0  0  0  0  0
  122.0382  120.8388   86.0468 O   0  0  0  0  0  0  0  0  0  0  0  0
  121.7962  122.9312   84.7984 C   0  0  0  0  0  0  0  0  0  0  0  0
  120.0320  122.7564   85.0249 Cl  0  0  0  0  0  0  0  0  0  0  0  0
  122.2790  124.6098   85.1248 Cl  0  0  0  0  0  0  0  0  0  0  0  0
  122.2258  122.4960   83.1192 Cl  0  0  0  0  0  0  0  0  0  0  0  0
  127.4675  120.9603   88.5524 H   0  0  0  0  0  0  0  0  0  0  0  0
  126.2971  121.0652   90.7513 H   0  0  0  0  0  0  0  0  0  0  0  0
  123.9208  121.8025   90.8510 H   0  0  0  0  0  0  0  0  0  0  0  0
  122.7091  122.4343   88.7728 H   0  0  0  0  0  0  0  0  0  0  0  0
  124.2170  123.1081   85.6648 H   0  0  0  0  0  0  0  0  0  0  0  0
  1  2  3  0
  2  3  1  0
  3  4  2  0
  4  5  1  0
  5  6  2  0
  6  7  1  0
  7  8  2  0
  8  9  1  0
  9 10  1  0
 10 11  2  0
 10 12  1  0
 12 13  1  0
 12 14  1  0
 12 15  1  0
  8  3  1  0
  4 16  1  0
  5 17  1  0
  6 18  1  0
  7 19  1  0
  9 20  1  0
M  END
>  <loss>  (1) 
0.42552801966667175

>  <score>  (1) 
7.6245927810668945

$$$$
JBLQSXYHCNASCW-UHFFFAOYSA-N
     RDKit          3D

 20 20  0  0  0  0  0  0  0  0999 V2000
  126.9928  121.5156   85.1556 N   0  0  0  0  0  0  0  0  0  0  0  0
  126.4616  121.5603   86.1861 C   0  0  0  0  0  0  0  0  0  0  0  0
  125.7415  121.6399   87.4232 C   0  0  0  0  0  0  0  0  0  0  0  0
  126.4178  121.2873   88.6021 C   0  0  0  0  0  0  0  0  0  0  0  0
  125.7652  121.3468   89.8296 C   0  0  0  0  0  0  0  0  0  0  0  0
  124.4381  121.7580   89.8810 C   0  0  0  0  0  0  0  0  0  0  0  0
  123.7580  122.1110   88.7091 C   0  0  0  0  0  0  0  0  0  0  0  0
  124.3923  122.0595   87.4622 C   0  0  0  0  0  0  0  0  0  0  0  0
  123.7350  122.4101   86.2501 N   0  0  0  0  0  0  0  0  0  0  0  0
  122.5101  121.9369   85.7576 C   0  0  0  0  0  0  0  0  0  0  0  0
  122.0308  120.8428   86.0548 O   0  0  0  0  0  0  0  0  0  0  0  0
  121.8009  122.9273   84.7909 C   0  0  0  0  0  0  0  0  0  0  0  0
  120.0356  122.7578   85.0116 Cl  0  0  0  0  0  0  0  0  0  0  0  0
  122.2358  122.4826   83.1155 Cl  0  0  0  0  0  0  0  0  0  0  0  0
  122.2865  124.6064   85.1107 Cl  0  0  0  0  0  0  0  0  0  0  0  0
  127.4678  120.9627   88.5551 H   0  0  0  0  0  0  0  0  0  0  0  0
  126.2955  121.0704   90.7529 H   0  0  0  0  0  0  0  0  0  0  0  0
  123.9187  121.8064   90.8494 H   0  0  0  0  0  0  0  0  0  0  0  0
  122.7082  122.4340   88.7692 H   0  0  0  0  0  0  0  0  0  0  0  0
  124.2207  123.0996   85.6588 H   0  0  0  0  0  0  0  0  0  0  0  0
  1  2  3  0
  2  3  1  0
  3  4  2  0
  4  5  1  0
  5  6  2  0
  6  7  1  0
  7  8  2  0
  8  9  1  0
  9 10  1  0
 10 11  2  0
 10 12  1  0
 12 13  1  0
 12 14  1  0
 12 15  1  0
  8  3  1  0
  4 16  1  0
  5 17  1  0
  6 18  1  0
  7 19  1  0
  9 20  1  0
M  END
>  <loss>  (2) 
0.4257083237171173

>  <score>  (2) 
7.617394924163818

$$$$
JBLQSXYHCNASCW-UHFFFAOYSA-N
     RDKit          3D

 20 20  0  0  0  0  0  0  0  0999 V2000
  126.9998  121.5206   85.1591 N   0  0  0  0  0  0  0  0  0  0  0  0
  126.4659  121.5646   86.1883 C   0  0  0  0  0  0  0  0  0  0  0  0
  125.7426  121.6434   87.4236 C   0  0  0  0  0  0  0  0  0  0  0  0
  126.4157  121.2889   88.6039 C   0  0  0  0  0  0  0  0  0  0  0  0
  125.7599  121.3475   89.8298 C   0  0  0  0  0  0  0  0  0  0  0  0
  124.4330  121.7598   89.8782 C   0  0  0  0  0  0  0  0  0  0  0  0
  123.7562  122.1146   88.7049 C   0  0  0  0  0  0  0  0  0  0  0  0
  124.3938  122.0641   87.4596 C   0  0  0  0  0  0  0  0  0  0  0  0
  123.7399  122.4165   86.2461 N   0  0  0  0  0  0  0  0  0  0  0  0
  122.5226  121.9346   85.7433 C   0  0  0  0  0  0  0  0  0  0  0  0
  122.0537  120.8328   86.0285 O   0  0  0  0  0  0  0  0  0  0  0  0
  121.8077  122.9257   84.7817 C   0  0  0  0  0  0  0  0  0  0  0  0
  120.0453  122.7869   85.0435 Cl  0  0  0  0  0  0  0  0  0  0  0  0
  122.1979  122.4561   83.1021 Cl  0  0  0  0  0  0  0  0  0  0  0  0
  122.3267  124.6002   85.0719 Cl  0  0  0  0  0  0  0  0  0  0  0  0
  127.4655  120.9635   88.5592 H   0  0  0  0  0  0  0  0  0  0  0  0
  126.2876  121.0697   90.7541 H   0  0  0  0  0  0  0  0  0  0  0  0
  123.9111  121.8075   90.8453 H   0  0  0  0  0  0  0  0  0  0  0  0
  122.7065  122.4384   88.7626 H   0  0  0  0  0  0  0  0  0  0  0  0
  124.2221  123.1149   85.6624 H   0  0  0  0  0  0  0  0  0  0  0  0
  1  2  3  0
  2  3  1  0
  3  4  2  0
  4  5  1  0
  5  6  2  0
  6  7  1  0
  7  8  2  0
  8  9  1  0
  9 10  1  0
 10 11  2  0
 10 12  1  0
 12 13  1  0
 12 14  1  0
 12 15  1  0
  8  3  1  0
  4 16  1  0
  5 17  1  0
  6 18  1  0
  7 19  1  0
  9 20  1  0
M  END
>  <loss>  (3) 
0.42578044533729553

>  <score>  (3) 
7.612215042114258

$$$$
JBLQSXYHCNASCW-UHFFFAOYSA-N
     RDKit          3D

 20 20  0  0  0  0  0  0  0  0999 V2000
  126.9846  121.5092   85.1519 N   0  0  0  0  0  0  0  0  0  0  0  0
  126.4572  121.5571   86.1841 C   0  0  0  0  0  0  0  0  0  0  0  0
  125.7416  121.6408   87.4237 C   0  0  0  0  0  0  0  0  0  0  0  0
  126.4205  121.2863   88.6005 C   0  0  0  0  0  0  0  0  0  0  0  0
  125.7724  121.3497   89.8302 C   0  0  0  0  0  0  0  0  0  0  0  0
  124.4473  121.7667   89.8858 C   0  0  0  0  0  0  0  0  0  0  0  0
  123.7647  122.1216   88.7159 C   0  0  0  0  0  0  0  0  0  0  0  0
  124.3945  122.0663   87.4669 C   0  0  0  0  0  0  0  0  0  0  0  0
  123.7345  122.4186   86.2567 N   0  0  0  0  0  0  0  0  0  0  0  0
  122.5134  121.9386   85.7613 C   0  0  0  0  0  0  0  0  0  0  0  0
  122.0428  120.8390   86.0522 O   0  0  0  0  0  0  0  0  0  0  0  0
  121.7959  122.9295   84.8013 C   0  0  0  0  0  0  0  0  0  0  0  0
  122.2492  124.6123   85.1479 Cl  0  0  0  0  0  0  0  0  0  0  0  0
  120.0317  122.7269   85.0029 Cl  0  0  0  0  0  0  0  0  0  0  0  0
  122.2541  122.5145   83.1245 Cl  0  0  0  0  0  0  0  0  0  0  0  0
  127.4689  120.9571   88.5502 H   0  0  0  0  0  0  0  0  0  0  0  0
  126.3047  121.0719   90.7519 H   0  0  0  0  0  0  0  0  0  0  0  0
  123.9313  121.8183   90.8559 H   0  0  0  0  0  0  0  0  0  0  0  0
  122.7165  122.4492   88.7793 H   0  0  0  0  0  0  0  0  0  0  0  0
  124.2149  123.1152   85.6694 H   0  0  0  0  0  0  0  0  0  0  0  0
  1  2  3  0
  2  3  1  0
  3  4  2  0
  4  5  1  0
  5  6  2  0
  6  7  1  0
  7  8  2  0
  8  9  1  0
  9 10  1  0
 10 11  2  0
 10 12  1  0
 12 13  1  0
 12 14  1  0
 12 15  1  0
  8  3  1  0
  4 16  1  0
  5 17  1  0
  6 18  1  0
  7 19  1  0
  9 20  1  0
M  END
>  <loss>  (4) 
0.42567771673202515

>  <score>  (4) 
7.610572338104248

$$$$
JBLQSXYHCNASCW-UHFFFAOYSA-N
     RDKit          3D

 20 20  0  0  0  0  0  0  0  0999 V2000
  126.9784  121.5298   85.1521 N   0  0  0  0  0  0  0  0  0  0  0  0
  126.4503  121.5690   86.1844 C   0  0  0  0  0  0  0  0  0  0  0  0
  125.7338  121.6414   87.4241 C   0  0  0  0  0  0  0  0  0  0  0  0
  126.4165  121.2910   88.6000 C   0  0  0  0  0  0  0  0  0  0  0  0
  125.7675  121.3438   89.8298 C   0  0  0  0  0  0  0  0  0  0  0  0
  124.4379  121.7460   89.8864 C   0  0  0  0  0  0  0  0  0  0  0  0
  123.7515  122.0967   88.7175 C   0  0  0  0  0  0  0  0  0  0  0  0
  124.3821  122.0519   87.4684 C   0  0  0  0  0  0  0  0  0  0  0  0
  123.7184  122.4004   86.2591 N   0  0  0  0  0  0  0  0  0  0  0  0
  122.4830  121.9390   85.7818 C   0  0  0  0  0  0  0  0  0  0  0  0
  121.9893  120.8566   86.0979 O   0  0  0  0  0  0  0  0  0  0  0  0
  121.7820  122.9264   84.8062 C   0  0  0  0  0  0  0  0  0  0  0  0
  122.6972  122.9412   83.2712 Cl  0  0  0  0  0  0  0  0  0  0  0  0
  121.8200  124.5570   85.5366 Cl  0  0  0  0  0  0  0  0  0  0  0  0
  120.0992  122.4476   84.4960 Cl  0  0  0  0  0  0  0  0  0  0  0  0
  127.4684  120.9735   88.5489 H   0  0  0  0  0  0  0  0  0  0  0  0
  126.3028  121.0692   90.7508 H   0  0  0  0  0  0  0  0  0  0  0  0
  123.9214  121.7891   90.8566 H   0  0  0  0  0  0  0  0  0  0  0  0
  122.6998  122.4125   88.7817 H   0  0  0  0  0  0  0  0  0  0  0  0
  124.2077  123.0781   85.6573 H   0  0  0  0  0  0  0  0  0  0  0  0
  1  2  3  0
  2  3  1  0
  3  4  2  0
  4  5  1  0
  5  6  2  0
  6  7  1  0
  7  8  2  0
  8  9  1  0
  9 10  1  0
 10 11  2  0
 10 12  1  0
 12 13  1  0
 12 14  1  0
 12 15  1  0
  8  3  1  0
  4 16  1  0
  5 17  1  0
  6 18  1  0
  7 19  1  0
  9 20  1  0
M  END
>  <loss>  (5) 
0.4293730556964874

>  <score>  (5) 
7.620226860046387

$$$$
JBLQSXYHCNASCW-UHFFFAOYSA-N
     RDKit          3D

 20 20  0  0  0  0  0  0  0  0999 V2000
  126.9796  121.5234   85.1530 N   0  0  0  0  0  0  0  0  0  0  0  0
  126.4519  121.5647   86.1855 C   0  0  0  0  0  0  0  0  0  0  0  0
  125.7358  121.6397   87.4252 C   0  0  0  0  0  0  0  0  0  0  0  0
  126.4186  121.2910   88.6016 C   0  0  0  0  0  0  0  0  0  0  0  0
  125.7700  121.3463   89.8315 C   0  0  0  0  0  0  0  0  0  0  0  0
  124.4407  121.7495   89.8877 C   0  0  0  0  0  0  0  0  0  0  0  0
  123.7542  122.0985   88.7184 C   0  0  0  0  0  0  0  0  0  0  0  0
  124.3843  122.0511   87.4692 C   0  0  0  0  0  0  0  0  0  0  0  0
  123.7205  122.3980   86.2595 N   0  0  0  0  0  0  0  0  0  0  0  0
  122.4808  121.9430   85.7874 C   0  0  0  0  0  0  0  0  0  0  0  0
  121.9774  120.8684   86.1147 O   0  0  0  0  0  0  0  0  0  0  0  0
  121.7883  122.9267   84.8019 C   0  0  0  0  0  0  0  0  0  0  0  0
  122.6458  122.8467   83.2360 Cl  0  0  0  0  0  0  0  0  0  0  0  0
  120.0757  122.5142   84.5692 Cl  0  0  0  0  0  0  0  0  0  0  0  0
  121.9252  124.5782   85.4709 Cl  0  0  0  0  0  0  0  0  0  0  0  0
  127.4703  120.9728   88.5507 H   0  0  0  0  0  0  0  0  0  0  0  0
  126.3054  121.0730   90.7527 H   0  0  0  0  0  0  0  0  0  0  0  0
  123.9245  121.7945   90.8580 H   0  0  0  0  0  0  0  0  0  0  0  0
  122.7027  122.4151   88.7824 H   0  0  0  0  0  0  0  0  0  0  0  0
  124.2134  123.0690   85.6530 H   0  0  0  0  0  0  0  0  0  0  0  0
  1  2  3  0
  2  3  1  0
  3  4  2  0
  4  5  1  0
  5  6  2  0
  6  7  1  0
  7  8  2  0
  8  9  1  0
  9 10  1  0
 10 11  2  0
 10 12  1  0
 12 13  1  0
 12 14  1  0
 12 15  1  0
  8  3  1  0
  4 16  1  0
  5 17  1  0
  6 18  1  0
  7 19  1  0
  9 20  1  0
M  END
>  <loss>  (6) 
0.4294026792049408

>  <score>  (6) 
7.618804931640625

$$$$
JBLQSXYHCNASCW-UHFFFAOYSA-N
     RDKit          3D

 20 20  0  0  0  0  0  0  0  0999 V2000
  126.9782  121.5339   85.1513 N   0  0  0  0  0  0  0  0  0  0  0  0
  126.4503  121.5717   86.1837 C   0  0  0  0  0  0  0  0  0  0  0  0
  125.7340  121.6424   87.4236 C   0  0  0  0  0  0  0  0  0  0  0  0
  126.4168  121.2907   88.5990 C   0  0  0  0  0  0  0  0  0  0  0  0
  125.7681  121.3419   89.8290 C   0  0  0  0  0  0  0  0  0  0  0  0
  124.4384  121.7439   89.8862 C   0  0  0  0  0  0  0  0  0  0  0  0
  123.7518  122.0959   88.7178 C   0  0  0  0  0  0  0  0  0  0  0  0
  124.3821  122.0527   87.4686 C   0  0  0  0  0  0  0  0  0  0  0  0
  123.7182  122.4026   86.2598 N   0  0  0  0  0  0  0  0  0  0  0  0
  122.4837  121.9402   85.7813 C   0  0  0  0  0  0  0  0  0  0  0  0
  121.9910  120.8570   86.0961 O   0  0  0  0  0  0  0  0  0  0  0  0
  121.7816  122.9283   84.8071 C   0  0  0  0  0  0  0  0  0  0  0  0
  120.1124  122.4251   84.4635 Cl  0  0  0  0  0  0  0  0  0  0  0  0
  122.7206  122.9792   83.2873 Cl  0  0  0  0  0  0  0  0  0  0  0  0
  121.7801  124.5493   85.5595 Cl  0  0  0  0  0  0  0  0  0  0  0  0
  127.4688  120.9735   88.5473 H   0  0  0  0  0  0  0  0  0  0  0  0
  126.3035  121.0663   90.7495 H   0  0  0  0  0  0  0  0  0  0  0  0
  123.9220  121.7857   90.8566 H   0  0  0  0  0  0  0  0  0  0  0  0
  122.7001  122.4115   88.7826 H   0  0  0  0  0  0  0  0  0  0  0  0
  124.2067  123.0823   85.6595 H   0  0  0  0  0  0  0  0  0  0  0  0
  1  2  3  0
  2  3  1  0
  3  4  2  0
  4  5  1  0
  5  6  2  0
  6  7  1  0
  7  8  2  0
  8  9  1  0
  9 10  1  0
 10 11  2  0
 10 12  1  0
 12 13  1  0
 12 14  1  0
 12 15  1  0
  8  3  1  0
  4 16  1  0
  5 17  1  0
  6 18  1  0
  7 19  1  0
  9 20  1  0
M  END
>  <loss>  (7) 
0.4294188320636749

>  <score>  (7) 
7.617558002471924

$$$$
JBLQSXYHCNASCW-UHFFFAOYSA-N
     RDKit          3D

 20 20  0  0  0  0  0  0  0  0999 V2000
  126.9796  121.5320   85.1509 N   0  0  0  0  0  0  0  0  0  0  0  0
  126.4517  121.5707   86.1834 C   0  0  0  0  0  0  0  0  0  0  0  0
  125.7354  121.6424   87.4232 C   0  0  0  0  0  0  0  0  0  0  0  0
  126.4180  121.2907   88.5988 C   0  0  0  0  0  0  0  0  0  0  0  0
  125.7692  121.3428   89.8287 C   0  0  0  0  0  0  0  0  0  0  0  0
  124.4398  121.7456   89.8858 C   0  0  0  0  0  0  0  0  0  0  0  0
  123.7535  122.0976   88.7172 C   0  0  0  0  0  0  0  0  0  0  0  0
  124.3838  122.0535   87.4680 C   0  0  0  0  0  0  0  0  0  0  0  0
  123.7201  122.4033   86.2591 N   0  0  0  0  0  0  0  0  0  0  0  0
  122.4857  121.9409   85.7804 C   0  0  0  0  0  0  0  0  0  0  0  0
  121.9929  120.8577   86.0951 O   0  0  0  0  0  0  0  0  0  0  0  0
  121.7846  122.9281   84.8046 C   0  0  0  0  0  0  0  0  0  0  0  0
  121.8144  124.5572   85.5389 Cl  0  0  0  0  0  0  0  0  0  0  0  0
  122.7050  122.9497   83.2729 Cl  0  0  0  0  0  0  0  0  0  0  0  0
  120.1045  122.4443   84.4877 Cl  0  0  0  0  0  0  0  0  0  0  0  0
  127.4698  120.9728   88.5472 H   0  0  0  0  0  0  0  0  0  0  0  0
  126.3044  121.0672   90.7493 H   0  0  0  0  0  0  0  0  0  0  0  0
  123.9234  121.7881   90.8561 H   0  0  0  0  0  0  0  0  0  0  0  0
  122.7019  122.4139   88.7818 H   0  0  0  0  0  0  0  0  0  0  0  0
  124.2087  123.0830   85.6588 H   0  0  0  0  0  0  0  0  0  0  0  0
  1  2  3  0
  2  3  1  0
  3  4  2  0
  4  5  1  0
  5  6  2  0
  6  7  1  0
  7  8  2  0
  8  9  1  0
  9 10  1  0
 10 11  2  0
 10 12  1  0
 12 13  1  0
 12 14  1  0
 12 15  1  0
  8  3  1  0
  4 16  1  0
  5 17  1  0
  6 18  1  0
  7 19  1  0
  9 20  1  0
M  END
>  <loss>  (8) 
0.42934226989746094

>  <score>  (8) 
7.616016864776611

$$$$
JBLQSXYHCNASCW-UHFFFAOYSA-N
     RDKit          3D

 20 20  0  0  0  0  0  0  0  0999 V2000
  126.9816  121.5365   85.1530 N   0  0  0  0  0  0  0  0  0  0  0  0
  126.4527  121.5732   86.1851 C   0  0  0  0  0  0  0  0  0  0  0  0
  125.7352  121.6426   87.4243 C   0  0  0  0  0  0  0  0  0  0  0  0
  126.4167  121.2887   88.5999 C   0  0  0  0  0  0  0  0  0  0  0  0
  125.7667  121.3383   89.8293 C   0  0  0  0  0  0  0  0  0  0  0  0
  124.4373  121.7410   89.8858 C   0  0  0  0  0  0  0  0  0  0  0  0
  123.7521  122.0952   88.7173 C   0  0  0  0  0  0  0  0  0  0  0  0
  124.3836  122.0537   87.4686 C   0  0  0  0  0  0  0  0  0  0  0  0
  123.7211  122.4058   86.2597 N   0  0  0  0  0  0  0  0  0  0  0  0
  122.4903  121.9391   85.7757 C   0  0  0  0  0  0  0  0  0  0  0  0
  122.0045  120.8501   86.0810 O   0  0  0  0  0  0  0  0  0  0  0  0
  121.7851  122.9284   84.8050 C   0  0  0  0  0  0  0  0  0  0  0  0
  120.1132  122.4284   84.4702 Cl  0  0  0  0  0  0  0  0  0  0  0  0
  121.7898  124.5504   85.5556 Cl  0  0  0  0  0  0  0  0  0  0  0  0
  122.7175  122.9758   83.2812 Cl  0  0  0  0  0  0  0  0  0  0  0  0
  127.4686  120.9709   88.5487 H   0  0  0  0  0  0  0  0  0  0  0  0
  126.3011  121.0610   90.7499 H   0  0  0  0  0  0  0  0  0  0  0  0
  123.9199  121.7815   90.8557 H   0  0  0  0  0  0  0  0  0  0  0  0
  122.7004  122.4113   88.7815 H   0  0  0  0  0  0  0  0  0  0  0  0
  124.2075  123.0909   85.6640 H   0  0  0  0  0  0  0  0  0  0  0  0
  1  2  3  0
  2  3  1  0
  3  4  2  0
  4  5  1  0
  5  6  2  0
  6  7  1  0
  7  8  2  0
  8  9  1  0
  9 10  1  0
 10 11  2  0
 10 12  1  0
 12 13  1  0
 12 14  1  0
 12 15  1  0
  8  3  1  0
  4 16  1  0
  5 17  1  0
  6 18  1  0
  7 19  1  0
  9 20  1  0
M  END
>  <loss>  (9) 
0.4292319118976593

>  <score>  (9) 
7.6151957511901855

$$$$
JBLQSXYHCNASCW-UHFFFAOYSA-N
     RDKit          3D

 20 20  0  0  0  0  0  0  0  0999 V2000
  126.9873  121.5180   85.1569 N   0  0  0  0  0  0  0  0  0  0  0  0
  126.4566  121.5620   86.1877 C   0  0  0  0  0  0  0  0  0  0  0  0
  125.7370  121.6404   87.4252 C   0  0  0  0  0  0  0  0  0  0  0  0
  126.4151  121.2907   88.6039 C   0  0  0  0  0  0  0  0  0  0  0  0
  125.7630  121.3492   89.8318 C   0  0  0  0  0  0  0  0  0  0  0  0
  124.4348  121.7566   89.8837 C   0  0  0  0  0  0  0  0  0  0  0  0
  123.7529  122.1068   88.7120 C   0  0  0  0  0  0  0  0  0  0  0  0
  124.3867  122.0562   87.4647 C   0  0  0  0  0  0  0  0  0  0  0  0
  123.7276  122.4039   86.2527 N   0  0  0  0  0  0  0  0  0  0  0  0
  122.4936  121.9429   85.7715 C   0  0  0  0  0  0  0  0  0  0  0  0
  121.9971  120.8620   86.0882 O   0  0  0  0  0  0  0  0  0  0  0  0
  121.7980  122.9287   84.7903 C   0  0  0  0  0  0  0  0  0  0  0  0
  122.7259  122.9465   83.2630 Cl  0  0  0  0  0  0  0  0  0  0  0  0
  121.8255  124.5592   85.5215 Cl  0  0  0  0  0  0  0  0  0  0  0  0
  120.1191  122.4454   84.4661 Cl  0  0  0  0  0  0  0  0  0  0  0  0
  127.4660  120.9691   88.5565 H   0  0  0  0  0  0  0  0  0  0  0  0
  126.2947  121.0751   90.7549 H   0  0  0  0  0  0  0  0  0  0  0  0
  123.9158  121.8043   90.8524 H   0  0  0  0  0  0  0  0  0  0  0  0
  122.7023  122.4268   88.7724 H   0  0  0  0  0  0  0  0  0  0  0  0
  124.2196  123.0807   85.6520 H   0  0  0  0  0  0  0  0  0  0  0  0
  1  2  3  0
  2  3  1  0
  3  4  2  0
  4  5  1  0
  5  6  2  0
  6  7  1  0
  7  8  2  0
  8  9  1  0
  9 10  1  0
 10 11  2  0
 10 12  1  0
 12 13  1  0
 12 14  1  0
 12 15  1  0
  8  3  1  0
  4 16  1  0
  5 17  1  0
  6 18  1  0
  7 19  1  0
  9 20  1  0
M  END
>  <loss>  (10) 
0.4293825030326843

>  <score>  (10) 
7.615565776824951

$$$$
JBLQSXYHCNASCW-UHFFFAOYSA-N
     RDKit          3D

 20 20  0  0  0  0  0  0  0  0999 V2000
  126.9812  121.5366   85.1529 N   0  0  0  0  0  0  0  0  0  0  0  0
  126.4524  121.5733   86.1850 C   0  0  0  0  0  0  0  0  0  0  0  0
  125.7350  121.6427   87.4243 C   0  0  0  0  0  0  0  0  0  0  0  0
  126.4165  121.2885   88.5997 C   0  0  0  0  0  0  0  0  0  0  0  0
  125.7666  121.3381   89.8292 C   0  0  0  0  0  0  0  0  0  0  0  0
  124.4372  121.7409   89.8859 C   0  0  0  0  0  0  0  0  0  0  0  0
  123.7520  122.0954   88.7174 C   0  0  0  0  0  0  0  0  0  0  0  0
  124.3835  122.0539   87.4687 C   0  0  0  0  0  0  0  0  0  0  0  0
  123.7209  122.4062   86.2599 N   0  0  0  0  0  0  0  0  0  0  0  0
  122.4904  121.9391   85.7755 C   0  0  0  0  0  0  0  0  0  0  0  0
  122.0051  120.8498   86.0802 O   0  0  0  0  0  0  0  0  0  0  0  0
  121.7848  122.9286   84.8053 C   0  0  0  0  0  0  0  0  0  0  0  0
  120.1146  122.4255   84.4665 Cl  0  0  0  0  0  0  0  0  0  0  0  0
  121.7846  124.5493   85.5585 Cl  0  0  0  0  0  0  0  0  0  0  0  0
  122.7198  122.9806   83.2832 Cl  0  0  0  0  0  0  0  0  0  0  0  0
  127.4683  120.9706   88.5485 H   0  0  0  0  0  0  0  0  0  0  0  0
  126.3010  121.0606   90.7497 H   0  0  0  0  0  0  0  0  0  0  0  0
  123.9199  121.7814   90.8558 H   0  0  0  0  0  0  0  0  0  0  0  0
  122.7004  122.4116   88.7817 H   0  0  0  0  0  0  0  0  0  0  0  0
  124.2071  123.0918   85.6645 H   0  0  0  0  0  0  0  0  0  0  0  0
  1  2  3  0
  2  3  1  0
  3  4  2  0
  4  5  1  0
  5  6  2  0
  6  7  1  0
  7  8  2  0
  8  9  1  0
  9 10  1  0
 10 11  2  0
 10 12  1  0
 12 13  1  0
 12 14  1  0
 12 15  1  0
  8  3  1  0
  4 16  1  0
  5 17  1  0
  6 18  1  0
  7 19  1  0
  9 20  1  0
M  END
>  <loss>  (11) 
0.42926377058029175

>  <score>  (11) 
7.6145853996276855

$$$$
JBLQSXYHCNASCW-UHFFFAOYSA-N
     RDKit          3D

 20 20  0  0  0  0  0  0  0  0999 V2000
  126.9839  121.5264   85.1588 N   0  0  0  0  0  0  0  0  0  0  0  0
  126.4551  121.5669   86.1907 C   0  0  0  0  0  0  0  0  0  0  0  0
  125.7379  121.6410   87.4298 C   0  0  0  0  0  0  0  0  0  0  0  0
  126.4189  121.2896   88.6063 C   0  0  0  0  0  0  0  0  0  0  0  0
  125.7692  121.3440   89.8357 C   0  0  0  0  0  0  0  0  0  0  0  0
  124.4403  121.7488   89.8911 C   0  0  0  0  0  0  0  0  0  0  0  0
  123.7555  122.1005   88.7216 C   0  0  0  0  0  0  0  0  0  0  0  0
  124.3869  122.0542   87.4730 C   0  0  0  0  0  0  0  0  0  0  0  0
  123.7247  122.4037   86.2631 N   0  0  0  0  0  0  0  0  0  0  0  0
  122.4923  121.9389   85.7816 C   0  0  0  0  0  0  0  0  0  0  0  0
  122.0015  120.8542   86.0941 O   0  0  0  0  0  0  0  0  0  0  0  0
  121.7906  122.9257   84.8057 C   0  0  0  0  0  0  0  0  0  0  0  0
  121.8100  124.5528   85.5447 Cl  0  0  0  0  0  0  0  0  0  0  0  0
  122.7172  122.9558   83.2778 Cl  0  0  0  0  0  0  0  0  0  0  0  0
  120.1141  122.4350   84.4805 Cl  0  0  0  0  0  0  0  0  0  0  0  0
  127.4703  120.9701   88.5561 H   0  0  0  0  0  0  0  0  0  0  0  0
  126.3032  121.0686   90.7571 H   0  0  0  0  0  0  0  0  0  0  0  0
  123.9231  121.7930   90.8610 H   0  0  0  0  0  0  0  0  0  0  0  0
  122.7043  122.4184   88.7850 H   0  0  0  0  0  0  0  0  0  0  0  0
  124.2129  123.0850   85.6645 H   0  0  0  0  0  0  0  0  0  0  0  0
  1  2  3  0
  2  3  1  0
  3  4  2  0
  4  5  1  0
  5  6  2  0
  6  7  1  0
  7  8  2  0
  8  9  1  0
  9 10  1  0
 10 11  2  0
 10 12  1  0
 12 13  1  0
 12 14  1  0
 12 15  1  0
  8  3  1  0
  4 16  1  0
  5 17  1  0
  6 18  1  0
  7 19  1  0
  9 20  1  0
M  END
>  <loss>  (12) 
0.42934098839759827

>  <score>  (12) 
7.614404678344727

$$$$
JBLQSXYHCNASCW-UHFFFAOYSA-N
     RDKit          3D

 20 20  0  0  0  0  0  0  0  0999 V2000
  126.9918  121.5193   85.1634 N   0  0  0  0  0  0  0  0  0  0  0  0
  126.4584  121.5620   86.1929 C   0  0  0  0  0  0  0  0  0  0  0  0
  125.7358  121.6394   87.4287 C   0  0  0  0  0  0  0  0  0  0  0  0
  126.4080  121.2791   88.6076 C   0  0  0  0  0  0  0  0  0  0  0  0
  125.7528  121.3362   89.8339 C   0  0  0  0  0  0  0  0  0  0  0  0
  124.4273  121.7527   89.8839 C   0  0  0  0  0  0  0  0  0  0  0  0
  123.7513  122.1134   88.7120 C   0  0  0  0  0  0  0  0  0  0  0  0
  124.3883  122.0645   87.4663 C   0  0  0  0  0  0  0  0  0  0  0  0
  123.7353  122.4228   86.2541 N   0  0  0  0  0  0  0  0  0  0  0  0
  122.5275  121.9297   85.7392 C   0  0  0  0  0  0  0  0  0  0  0  0
  122.0723  120.8185   86.0097 O   0  0  0  0  0  0  0  0  0  0  0  0
  121.8043  122.9215   84.7844 C   0  0  0  0  0  0  0  0  0  0  0  0
  122.2177  122.4817   83.1023 Cl  0  0  0  0  0  0  0  0  0  0  0  0
  120.0423  122.7488   85.0280 Cl  0  0  0  0  0  0  0  0  0  0  0  0
  122.2917  124.6005   85.1020 Cl  0  0  0  0  0  0  0  0  0  0  0  0
  127.4567  120.9504   88.5616 H   0  0  0  0  0  0  0  0  0  0  0  0
  126.2798  121.0539   90.7572 H   0  0  0  0  0  0  0  0  0  0  0  0
  123.9058  121.7993   90.8513 H   0  0  0  0  0  0  0  0  0  0  0  0
  122.7028  122.4405   88.7710 H   0  0  0  0  0  0  0  0  0  0  0  0
  124.2101  123.1354   85.6817 H   0  0  0  0  0  0  0  0  0  0  0  0
  1  2  3  0
  2  3  1  0
  3  4  2  0
  4  5  1  0
  5  6  2  0
  6  7  1  0
  7  8  2  0
  8  9  1  0
  9 10  1  0
 10 11  2  0
 10 12  1  0
 12 13  1  0
 12 14  1  0
 12 15  1  0
  8  3  1  0
  4 16  1  0
  5 17  1  0
  6 18  1  0
  7 19  1  0
  9 20  1  0
M  END
>  <loss>  (13) 
0.4256911873817444

>  <score>  (13) 
7.59268045425415

$$$$
JBLQSXYHCNASCW-UHFFFAOYSA-N
     RDKit          3D

 20 20  0  0  0  0  0  0  0  0999 V2000
  126.9782  121.5456   85.1514 N   0  0  0  0  0  0  0  0  0  0  0  0
  126.4513  121.5791   86.1846 C   0  0  0  0  0  0  0  0  0  0  0  0
  125.7362  121.6444   87.4254 C   0  0  0  0  0  0  0  0  0  0  0  0
  126.4214  121.2915   88.5991 C   0  0  0  0  0  0  0  0  0  0  0  0
  125.7739  121.3375   89.8300 C   0  0  0  0  0  0  0  0  0  0  0  0
  124.4431  121.7356   89.8898 C   0  0  0  0  0  0  0  0  0  0  0  0
  123.7542  122.0888   88.7231 C   0  0  0  0  0  0  0  0  0  0  0  0
  124.3833  122.0507   87.4730 C   0  0  0  0  0  0  0  0  0  0  0  0
  123.7170  122.4020   86.2660 N   0  0  0  0  0  0  0  0  0  0  0  0
  122.4810  121.9410   85.7899 C   0  0  0  0  0  0  0  0  0  0  0  0
  121.9884  120.8577   86.1045 O   0  0  0  0  0  0  0  0  0  0  0  0
  121.7772  122.9307   84.8186 C   0  0  0  0  0  0  0  0  0  0  0  0
  120.0920  122.4553   84.5160 Cl  0  0  0  0  0  0  0  0  0  0  0  0
  122.6848  122.9458   83.2790 Cl  0  0  0  0  0  0  0  0  0  0  0  0
  121.8220  124.5602   85.5510 Cl  0  0  0  0  0  0  0  0  0  0  0  0
  127.4742  120.9774   88.5454 H   0  0  0  0  0  0  0  0  0  0  0  0
  126.3111  121.0609   90.7491 H   0  0  0  0  0  0  0  0  0  0  0  0
  123.9277  121.7733   90.8608 H   0  0  0  0  0  0  0  0  0  0  0  0
  122.7017  122.4012   88.7899 H   0  0  0  0  0  0  0  0  0  0  0  0
  124.2047  123.0816   85.6651 H   0  0  0  0  0  0  0  0  0  0  0  0
  1  2  3  0
  2  3  1  0
  3  4  2  0
  4  5  1  0
  5  6  2  0
  6  7  1  0
  7  8  2  0
  8  9  1  0
  9 10  1  0
 10 11  2  0
 10 12  1  0
 12 13  1  0
 12 14  1  0
 12 15  1  0
  8  3  1  0
  4 16  1  0
  5 17  1  0
  6 18  1  0
  7 19  1  0
  9 20  1  0
M  END
>  <loss>  (14) 
0.4293600022792816

>  <score>  (14) 
7.561933994293213

$$$$
JBLQSXYHCNASCW-UHFFFAOYSA-N
     RDKit          3D

 20 20  0  0  0  0  0  0  0  0999 V2000
  126.9822  121.4975   85.1516 N   0  0  0  0  0  0  0  0  0  0  0  0
  126.4546  121.5496   86.1836 C   0  0  0  0  0  0  0  0  0  0  0  0
  125.7390  121.6388   87.4227 C   0  0  0  0  0  0  0  0  0  0  0  0
  126.4157  121.2830   88.6004 C   0  0  0  0  0  0  0  0  0  0  0  0
  125.7673  121.3515   89.8298 C   0  0  0  0  0  0  0  0  0  0  0  0
  124.4442  121.7749   89.8841 C   0  0  0  0  0  0  0  0  0  0  0  0
  123.7638  122.1311   88.7134 C   0  0  0  0  0  0  0  0  0  0  0  0
  124.3939  122.0708   87.4647 C   0  0  0  0  0  0  0  0  0  0  0  0
  123.7361  122.4244   86.2536 N   0  0  0  0  0  0  0  0  0  0  0  0
  122.5107  121.9528   85.7607 C   0  0  0  0  0  0  0  0  0  0  0  0
  122.0334  120.8562   86.0520 O   0  0  0  0  0  0  0  0  0  0  0  0
  121.7982  122.9486   84.8020 C   0  0  0  0  0  0  0  0  0  0  0  0
  120.0350  122.6895   84.9351 Cl  0  0  0  0  0  0  0  0  0  0  0  0
  122.1889  124.6336   85.2088 Cl  0  0  0  0  0  0  0  0  0  0  0  0
  122.3268  122.5934   83.1322 Cl  0  0  0  0  0  0  0  0  0  0  0  0
  127.4625  120.9487   88.5511 H   0  0  0  0  0  0  0  0  0  0  0  0
  126.2979  121.0726   90.7521 H   0  0  0  0  0  0  0  0  0  0  0  0
  123.9281  121.8304   90.8539 H   0  0  0  0  0  0  0  0  0  0  0  0
  122.7172  122.4637   88.7758 H   0  0  0  0  0  0  0  0  0  0  0  0
  124.2219  123.1148   85.6636 H   0  0  0  0  0  0  0  0  0  0  0  0
  1  2  3  0
  2  3  1  0
  3  4  2  0
  4  5  1  0
  5  6  2  0
  6  7  1  0
  7  8  2  0
  8  9  1  0
  9 10  1  0
 10 11  2  0
 10 12  1  0
 12 13  1  0
 12 14  1  0
 12 15  1  0
  8  3  1  0
  4 16  1  0
  5 17  1  0
  6 18  1  0
  7 19  1  0
  9 20  1  0
M  END
>  <loss>  (15) 
0.4256044030189514

>  <score>  (15) 
7.537605285644531

$$$$
JBLQSXYHCNASCW-UHFFFAOYSA-N
     RDKit          3D

 20 20  0  0  0  0  0  0  0  0999 V2000
  126.9983  121.5283   85.1500 N   0  0  0  0  0  0  0  0  0  0  0  0
  126.4628  121.5706   86.1784 C   0  0  0  0  0  0  0  0  0  0  0  0
  125.7376  121.6477   87.4127 C   0  0  0  0  0  0  0  0  0  0  0  0
  126.4071  121.2863   88.5928 C   0  0  0  0  0  0  0  0  0  0  0  0
  125.7493  121.3431   89.8178 C   0  0  0  0  0  0  0  0  0  0  0  0
  124.4240  121.7603   89.8653 C   0  0  0  0  0  0  0  0  0  0  0  0
  123.7507  122.1220   88.6922 C   0  0  0  0  0  0  0  0  0  0  0  0
  124.3903  122.0735   87.4478 C   0  0  0  0  0  0  0  0  0  0  0  0
  123.7400  122.4329   86.2345 N   0  0  0  0  0  0  0  0  0  0  0  0
  122.5563  121.9088   85.6947 C   0  0  0  0  0  0  0  0  0  0  0  0
  122.1598  120.7621   85.9019 O   0  0  0  0  0  0  0  0  0  0  0  0
  121.7784  122.9153   84.8003 C   0  0  0  0  0  0  0  0  0  0  0  0
  120.5429  123.7217   85.8089 Cl  0  0  0  0  0  0  0  0  0  0  0  0
  120.9736  121.9981   83.4946 Cl  0  0  0  0  0  0  0  0  0  0  0  0
  122.8649  124.1323   84.0962 Cl  0  0  0  0  0  0  0  0  0  0  0  0
  127.4557  120.9570   88.5489 H   0  0  0  0  0  0  0  0  0  0  0  0
  126.2743  121.0598   90.7420 H   0  0  0  0  0  0  0  0  0  0  0  0
  123.9005  121.8065   90.8316 H   0  0  0  0  0  0  0  0  0  0  0  0
  122.7022  122.4496   88.7492 H   0  0  0  0  0  0  0  0  0  0  0  0
  124.1968  123.1724   85.6819 H   0  0  0  0  0  0  0  0  0  0  0  0
  1  2  3  0
  2  3  1  0
  3  4  2  0
  4  5  1  0
  5  6  2  0
  6  7  1  0
  7  8  2  0
  8  9  1  0
  9 10  1  0
 10 11  2  0
 10 12  1  0
 12 13  1  0
 12 14  1  0
 12 15  1  0
  8  3  1  0
  4 16  1  0
  5 17  1  0
  6 18  1  0
  7 19  1  0
  9 20  1  0
M  END
>  <loss>  (16) 
0.4248564541339874

>  <score>  (16) 
7.530351638793945

$$$$
JBLQSXYHCNASCW-UHFFFAOYSA-N
     RDKit          3D

 20 20  0  0  0  0  0  0  0  0999 V2000
  127.0066  121.5230   85.1574 N   0  0  0  0  0  0  0  0  0  0  0  0
  126.4710  121.5648   86.1857 C   0  0  0  0  0  0  0  0  0  0  0  0
  125.7457  121.6417   87.4200 C   0  0  0  0  0  0  0  0  0  0  0  0
  126.4133  121.2742   88.5994 C   0  0  0  0  0  0  0  0  0  0  0  0
  125.7553  121.3303   89.8243 C   0  0  0  0  0  0  0  0  0  0  0  0
  124.4318  121.7529   89.8725 C   0  0  0  0  0  0  0  0  0  0  0  0
  123.7604  122.1208   88.7001 C   0  0  0  0  0  0  0  0  0  0  0  0
  124.4003  122.0731   87.4559 C   0  0  0  0  0  0  0  0  0  0  0  0
  123.7519  122.4386   86.2433 N   0  0  0  0  0  0  0  0  0  0  0  0
  122.5413  121.9556   85.7256 C   0  0  0  0  0  0  0  0  0  0  0  0
  122.0765  120.8480   85.9944 O   0  0  0  0  0  0  0  0  0  0  0  0
  121.8295  122.9526   84.7677 C   0  0  0  0  0  0  0  0  0  0  0  0
  122.3362  124.6269   85.0799 Cl  0  0  0  0  0  0  0  0  0  0  0  0
  122.2369  122.5036   83.0864 Cl  0  0  0  0  0  0  0  0  0  0  0  0
  120.0659  122.8003   85.0128 Cl  0  0  0  0  0  0  0  0  0  0  0  0
  127.4606  120.9406   88.5549 H   0  0  0  0  0  0  0  0  0  0  0  0
  126.2788  121.0423   90.7479 H   0  0  0  0  0  0  0  0  0  0  0  0
  123.9081  121.7986   90.8388 H   0  0  0  0  0  0  0  0  0  0  0  0
  122.7132  122.4526   88.7577 H   0  0  0  0  0  0  0  0  0  0  0  0
  124.2330  123.1486   85.6729 H   0  0  0  0  0  0  0  0  0  0  0  0
  1  2  3  0
  2  3  1  0
  3  4  2  0
  4  5  1  0
  5  6  2  0
  6  7  1  0
  7  8  2  0
  8  9  1  0
  9 10  1  0
 10 11  2  0
 10 12  1  0
 12 13  1  0
 12 14  1  0
 12 15  1  0
  8  3  1  0
  4 16  1  0
  5 17  1  0
  6 18  1  0
  7 19  1  0
  9 20  1  0
M  END
>  <loss>  (17) 
0.4255806803703308

>  <score>  (17) 
7.46085786819458

$$$$
JBLQSXYHCNASCW-UHFFFAOYSA-N
     RDKit          3D

 20 20  0  0  0  0  0  0  0  0999 V2000
  126.9826  121.5416   85.1556 N   0  0  0  0  0  0  0  0  0  0  0  0
  126.4546  121.5763   86.1881 C   0  0  0  0  0  0  0  0  0  0  0  0
  125.7384  121.6445   87.4282 C   0  0  0  0  0  0  0  0  0  0  0  0
  126.4154  121.2711   88.6003 C   0  0  0  0  0  0  0  0  0  0  0  0
  125.7666  121.3189   89.8304 C   0  0  0  0  0  0  0  0  0  0  0  0
  124.4428  121.7392   89.8911 C   0  0  0  0  0  0  0  0  0  0  0  0
  123.7621  122.1129   88.7260 C   0  0  0  0  0  0  0  0  0  0  0  0
  124.3926  122.0735   87.4767 C   0  0  0  0  0  0  0  0  0  0  0  0
  123.7346  122.4453   86.2712 N   0  0  0  0  0  0  0  0  0  0  0  0
  122.5443  121.9310   85.7368 C   0  0  0  0  0  0  0  0  0  0  0  0
  122.1171  120.8026   85.9807 O   0  0  0  0  0  0  0  0  0  0  0  0
  121.8008  122.9233   84.7983 C   0  0  0  0  0  0  0  0  0  0  0  0
  120.2363  122.2679   84.2690 Cl  0  0  0  0  0  0  0  0  0  0  0  0
  122.8371  123.2324   83.3754 Cl  0  0  0  0  0  0  0  0  0  0  0  0
  121.5445  124.4508   85.6898 Cl  0  0  0  0  0  0  0  0  0  0  0  0
  127.4628  120.9394   88.5460 H   0  0  0  0  0  0  0  0  0  0  0  0
  126.2974  121.0262   90.7483 H   0  0  0  0  0  0  0  0  0  0  0  0
  123.9263  121.7784   90.8615 H   0  0  0  0  0  0  0  0  0  0  0  0
  122.7149  122.4429   88.7934 H   0  0  0  0  0  0  0  0  0  0  0  0
  124.1906  123.1868   85.7207 H   0  0  0  0  0  0  0  0  0  0  0  0
  1  2  3  0
  2  3  1  0
  3  4  2  0
  4  5  1  0
  5  6  2  0
  6  7  1  0
  7  8  2  0
  8  9  1  0
  9 10  1  0
 10 11  2  0
 10 12  1  0
 12 13  1  0
 12 14  1  0
 12 15  1  0
  8  3  1  0
  4 16  1  0
  5 17  1  0
  6 18  1  0
  7 19  1  0
  9 20  1  0
M  END
>  <loss>  (18) 
0.4395473599433899

>  <score>  (18) 
7.526727676391602

$$$$
JBLQSXYHCNASCW-UHFFFAOYSA-N
     RDKit          3D

 20 20  0  0  0  0  0  0  0  0999 V2000
  126.9814  121.5576   85.1553 N   0  0  0  0  0  0  0  0  0  0  0  0
  126.4496  121.5893   86.1860 C   0  0  0  0  0  0  0  0  0  0  0  0
  125.7291  121.6540   87.4237 C   0  0  0  0  0  0  0  0  0  0  0  0
  126.4010  121.2749   88.5968 C   0  0  0  0  0  0  0  0  0  0  0  0
  125.7477  121.3192   89.8247 C   0  0  0  0  0  0  0  0  0  0  0  0
  124.4244  121.7416   89.8821 C   0  0  0  0  0  0  0  0  0  0  0  0
  123.7487  122.1210   88.7159 C   0  0  0  0  0  0  0  0  0  0  0  0
  124.3838  122.0852   87.4688 C   0  0  0  0  0  0  0  0  0  0  0  0
  123.7309  122.4627   86.2624 N   0  0  0  0  0  0  0  0  0  0  0  0
  122.5661  121.9219   85.6988 C   0  0  0  0  0  0  0  0  0  0  0  0
  122.1820  120.7695   85.8978 O   0  0  0  0  0  0  0  0  0  0  0  0
  121.7912  122.9178   84.7900 C   0  0  0  0  0  0  0  0  0  0  0  0
  122.8816  124.1204   84.0674 Cl  0  0  0  0  0  0  0  0  0  0  0  0
  120.5589  123.7438   85.7868 Cl  0  0  0  0  0  0  0  0  0  0  0  0
  120.9826  121.9838   83.4987 Cl  0  0  0  0  0  0  0  0  0  0  0  0
  127.4480  120.9416   88.5451 H   0  0  0  0  0  0  0  0  0  0  0  0
  126.2746  121.0220   90.7434 H   0  0  0  0  0  0  0  0  0  0  0  0
  123.9045  121.7780   90.8507 H   0  0  0  0  0  0  0  0  0  0  0  0
  122.7019  122.4525   88.7807 H   0  0  0  0  0  0  0  0  0  0  0  0
  124.1697  123.2314   85.7356 H   0  0  0  0  0  0  0  0  0  0  0  0
  1  2  3  0
  2  3  1  0
  3  4  2  0
  4  5  1  0
  5  6  2  0
  6  7  1  0
  7  8  2  0
  8  9  1  0
  9 10  1  0
 10 11  2  0
 10 12  1  0
 12 13  1  0
 12 14  1  0
 12 15  1  0
  8  3  1  0
  4 16  1  0
  5 17  1  0
  6 18  1  0
  7 19  1  0
  9 20  1  0
M  END
>  <loss>  (19) 
0.42481279373168945

>  <score>  (19) 
7.45177698135376

$$$$
JBLQSXYHCNASCW-UHFFFAOYSA-N
     RDKit          3D

 20 20  0  0  0  0  0  0  0  0999 V2000
  126.9764  121.5251   85.1523 N   0  0  0  0  0  0  0  0  0  0  0  0
  126.4519  121.5648   86.1864 C   0  0  0  0  0  0  0  0  0  0  0  0
  125.7398  121.6384   87.4285 C   0  0  0  0  0  0  0  0  0  0  0  0
  126.4231  121.2779   88.6010 C   0  0  0  0  0  0  0  0  0  0  0  0
  125.7784  121.3315   89.8330 C   0  0  0  0  0  0  0  0  0  0  0  0
  124.4524  121.7445   89.8952 C   0  0  0  0  0  0  0  0  0  0  0  0
  123.7654  122.1053   88.7297 C   0  0  0  0  0  0  0  0  0  0  0  0
  124.3917  122.0600   87.4785 C   0  0  0  0  0  0  0  0  0  0  0  0
  123.7272  122.4186   86.2726 N   0  0  0  0  0  0  0  0  0  0  0  0
  122.5040  121.9416   85.7796 C   0  0  0  0  0  0  0  0  0  0  0  0
  122.0250  120.8487   86.0816 O   0  0  0  0  0  0  0  0  0  0  0  0
  121.7964  122.9260   84.8057 C   0  0  0  0  0  0  0  0  0  0  0  0
  122.6852  122.9157   83.2553 Cl  0  0  0  0  0  0  0  0  0  0  0  0
  120.1037  122.4615   84.5294 Cl  0  0  0  0  0  0  0  0  0  0  0  0
  121.8635  124.5636   85.5184 Cl  0  0  0  0  0  0  0  0  0  0  0  0
  127.4722  120.9519   88.5455 H   0  0  0  0  0  0  0  0  0  0  0  0
  126.3141  121.0490   90.7513 H   0  0  0  0  0  0  0  0  0  0  0  0
  123.9391  121.7882   90.8672 H   0  0  0  0  0  0  0  0  0  0  0  0
  122.7165  122.4296   88.7984 H   0  0  0  0  0  0  0  0  0  0  0  0
  124.2056  123.1179   85.6870 H   0  0  0  0  0  0  0  0  0  0  0  0
  1  2  3  0
  2  3  1  0
  3  4  2  0
  4  5  1  0
  5  6  2  0
  6  7  1  0
  7  8  2  0
  8  9  1  0
  9 10  1  0
 10 11  2  0
 10 12  1  0
 12 13  1  0
 12 14  1  0
 12 15  1  0
  8  3  1  0
  4 16  1  0
  5 17  1  0
  6 18  1  0
  7 19  1  0
  9 20  1  0
M  END
>  <loss>  (20) 
0.4402494430541992

>  <score>  (20) 
7.524973392486572

$$$$
JBLQSXYHCNASCW-UHFFFAOYSA-N
     RDKit          3D

 20 20  0  0  0  0  0  0  0  0999 V2000
  126.9764  121.5219   85.1529 N   0  0  0  0  0  0  0  0  0  0  0  0
  126.4522  121.5626   86.1871 C   0  0  0  0  0  0  0  0  0  0  0  0
  125.7405  121.6375   87.4294 C   0  0  0  0  0  0  0  0  0  0  0  0
  126.4236  121.2762   88.6018 C   0  0  0  0  0  0  0  0  0  0  0  0
  125.7792  121.3310   89.8339 C   0  0  0  0  0  0  0  0  0  0  0  0
  124.4538  121.7459   89.8964 C   0  0  0  0  0  0  0  0  0  0  0  0
  123.7671  122.1075   88.7310 C   0  0  0  0  0  0  0  0  0  0  0  0
  124.3930  122.0611   87.4796 C   0  0  0  0  0  0  0  0  0  0  0  0
  123.7288  122.4204   86.2738 N   0  0  0  0  0  0  0  0  0  0  0  0
  122.5062  121.9429   85.7797 C   0  0  0  0  0  0  0  0  0  0  0  0
  122.0301  120.8474   86.0768 O   0  0  0  0  0  0  0  0  0  0  0  0
  121.7952  122.9305   84.8116 C   0  0  0  0  0  0  0  0  0  0  0  0
  122.6771  122.9236   83.2572 Cl  0  0  0  0  0  0  0  0  0  0  0  0
  120.1009  122.4681   84.5415 Cl  0  0  0  0  0  0  0  0  0  0  0  0
  121.8668  124.5661   85.5283 Cl  0  0  0  0  0  0  0  0  0  0  0  0
  127.4722  120.9487   88.5460 H   0  0  0  0  0  0  0  0  0  0  0  0
  126.3148  121.0478   90.7521 H   0  0  0  0  0  0  0  0  0  0  0  0
  123.9409  121.7905   90.8684 H   0  0  0  0  0  0  0  0  0  0  0  0
  122.7187  122.4334   88.7998 H   0  0  0  0  0  0  0  0  0  0  0  0
  124.2069  123.1208   85.6891 H   0  0  0  0  0  0  0  0  0  0  0  0
  1  2  3  0
  2  3  1  0
  3  4  2  0
  4  5  1  0
  5  6  2  0
  6  7  1  0
  7  8  2  0
  8  9  1  0
  9 10  1  0
 10 11  2  0
 10 12  1  0
 12 13  1  0
 12 14  1  0
 12 15  1  0
  8  3  1  0
  4 16  1  0
  5 17  1  0
  6 18  1  0
  7 19  1  0
  9 20  1  0
M  END
>  <loss>  (21) 
0.4402329921722412

>  <score>  (21) 
7.520030498504639

$$$$
JBLQSXYHCNASCW-UHFFFAOYSA-N
     RDKit          3D

 20 20  0  0  0  0  0  0  0  0999 V2000
  126.9865  121.5235   85.1424 N   0  0  0  0  0  0  0  0  0  0  0  0
  126.4550  121.5666   86.1728 C   0  0  0  0  0  0  0  0  0  0  0  0
  125.7349  121.6453   87.4100 C   0  0  0  0  0  0  0  0  0  0  0  0
  126.4058  121.2748   88.5865 C   0  0  0  0  0  0  0  0  0  0  0  0
  125.7528  121.3325   89.8140 C   0  0  0  0  0  0  0  0  0  0  0  0
  124.4309  121.7596   89.8676 C   0  0  0  0  0  0  0  0  0  0  0  0
  123.7562  122.1304   88.6981 C   0  0  0  0  0  0  0  0  0  0  0  0
  124.3910  122.0813   87.4513 C   0  0  0  0  0  0  0  0  0  0  0  0
  123.7391  122.4496   86.2415 N   0  0  0  0  0  0  0  0  0  0  0  0
  122.5680  121.9128   85.6873 C   0  0  0  0  0  0  0  0  0  0  0  0
  122.1906  120.7564   85.8754 O   0  0  0  0  0  0  0  0  0  0  0  0
  121.7790  122.9175   84.8006 C   0  0  0  0  0  0  0  0  0  0  0  0
  122.8570  124.1317   84.0787 Cl  0  0  0  0  0  0  0  0  0  0  0  0
  120.9554  121.9986   83.5077 Cl  0  0  0  0  0  0  0  0  0  0  0  0
  120.5583  123.7270   85.8245 Cl  0  0  0  0  0  0  0  0  0  0  0  0
  127.4518  120.9377   88.5377 H   0  0  0  0  0  0  0  0  0  0  0  0
  126.2789  121.0422   90.7354 H   0  0  0  0  0  0  0  0  0  0  0  0
  123.9112  121.8066   90.8359 H   0  0  0  0  0  0  0  0  0  0  0  0
  122.7104  122.4658   88.7599 H   0  0  0  0  0  0  0  0  0  0  0  0
  124.1842  123.2073   85.7041 H   0  0  0  0  0  0  0  0  0  0  0  0
  1  2  3  0
  2  3  1  0
  3  4  2  0
  4  5  1  0
  5  6  2  0
  6  7  1  0
  7  8  2  0
  8  9  1  0
  9 10  1  0
 10 11  2  0
 10 12  1  0
 12 13  1  0
 12 14  1  0
 12 15  1  0
  8  3  1  0
  4 16  1  0
  5 17  1  0
  6 18  1  0
  7 19  1  0
  9 20  1  0
M  END
>  <loss>  (22) 
0.4248378872871399

>  <score>  (22) 
7.4401326179504395

$$$$
JBLQSXYHCNASCW-UHFFFAOYSA-N
     RDKit          3D

 20 20  0  0  0  0  0  0  0  0999 V2000
  126.9852  121.5558   85.1458 N   0  0  0  0  0  0  0  0  0  0  0  0
  126.4608  121.5858   86.1804 C   0  0  0  0  0  0  0  0  0  0  0  0
  125.7491  121.6480   87.4233 C   0  0  0  0  0  0  0  0  0  0  0  0
  126.4311  121.2719   88.5916 C   0  0  0  0  0  0  0  0  0  0  0  0
  125.7867  121.3139   89.8242 C   0  0  0  0  0  0  0  0  0  0  0  0
  124.4622  121.7311   89.8912 C   0  0  0  0  0  0  0  0  0  0  0  0
  123.7764  122.1075   88.7299 C   0  0  0  0  0  0  0  0  0  0  0  0
  124.4025  122.0740   87.4782 C   0  0  0  0  0  0  0  0  0  0  0  0
  123.7393  122.4486   86.2765 N   0  0  0  0  0  0  0  0  0  0  0  0
  122.5460  121.9365   85.7467 C   0  0  0  0  0  0  0  0  0  0  0  0
  122.1170  120.8094   85.9932 O   0  0  0  0  0  0  0  0  0  0  0  0
  121.8023  122.9292   84.8087 C   0  0  0  0  0  0  0  0  0  0  0  0
  121.5377  124.4536   85.7033 Cl  0  0  0  0  0  0  0  0  0  0  0  0
  122.8426  123.2453   83.3904 Cl  0  0  0  0  0  0  0  0  0  0  0  0
  120.2416  122.2703   84.2725 Cl  0  0  0  0  0  0  0  0  0  0  0  0
  127.4791  120.9427   88.5323 H   0  0  0  0  0  0  0  0  0  0  0  0
  126.3214  121.0191   90.7392 H   0  0  0  0  0  0  0  0  0  0  0  0
  123.9492  121.7657   90.8636 H   0  0  0  0  0  0  0  0  0  0  0  0
  122.7288  122.4349   88.8023 H   0  0  0  0  0  0  0  0  0  0  0  0
  124.1936  123.1906   85.7252 H   0  0  0  0  0  0  0  0  0  0  0  0
  1  2  3  0
  2  3  1  0
  3  4  2  0
  4  5  1  0
  5  6  2  0
  6  7  1  0
  7  8  2  0
  8  9  1  0
  9 10  1  0
 10 11  2  0
 10 12  1  0
 12 13  1  0
 12 14  1  0
 12 15  1  0
  8  3  1  0
  4 16  1  0
  5 17  1  0
  6 18  1  0
  7 19  1  0
  9 20  1  0
M  END
>  <loss>  (23) 
0.43940746784210205

>  <score>  (23) 
7.41206169128418

$$$$
JBLQSXYHCNASCW-UHFFFAOYSA-N
     RDKit          3D

 20 20  0  0  0  0  0  0  0  0999 V2000
  126.9618  121.5001   85.1168 N   0  0  0  0  0  0  0  0  0  0  0  0
  126.4404  121.5378   86.1525 C   0  0  0  0  0  0  0  0  0  0  0  0
  125.7326  121.6106   87.3972 C   0  0  0  0  0  0  0  0  0  0  0  0
  126.4113  121.2227   88.5636 C   0  0  0  0  0  0  0  0  0  0  0  0
  125.7704  121.2740   89.7977 C   0  0  0  0  0  0  0  0  0  0  0  0
  124.4528  121.7121   89.8680 C   0  0  0  0  0  0  0  0  0  0  0  0
  123.7705  122.1003   88.7086 C   0  0  0  0  0  0  0  0  0  0  0  0
  124.3932  122.0579   87.4554 C   0  0  0  0  0  0  0  0  0  0  0  0
  123.7332  122.4438   86.2555 N   0  0  0  0  0  0  0  0  0  0  0  0
  122.5403  121.9381   85.7187 C   0  0  0  0  0  0  0  0  0  0  0  0
  122.1401  120.7891   85.9050 O   0  0  0  0  0  0  0  0  0  0  0  0
  121.7585  122.9676   84.8542 C   0  0  0  0  0  0  0  0  0  0  0  0
  121.6942  124.5597   85.6406 Cl  0  0  0  0  0  0  0  0  0  0  0  0
  122.5784  123.1098   83.2725 Cl  0  0  0  0  0  0  0  0  0  0  0  0
  120.1004  122.3475   84.6105 Cl  0  0  0  0  0  0  0  0  0  0  0  0
  127.4537  120.8769   88.5017 H   0  0  0  0  0  0  0  0  0  0  0  0
  126.3025  120.9701   90.7112 H   0  0  0  0  0  0  0  0  0  0  0  0
  123.9426  121.7541   90.8417 H   0  0  0  0  0  0  0  0  0  0  0  0
  122.7283  122.4442   88.7836 H   0  0  0  0  0  0  0  0  0  0  0  0
  124.1899  123.1898   85.7116 H   0  0  0  0  0  0  0  0  0  0  0  0
  1  2  3  0
  2  3  1  0
  3  4  2  0
  4  5  1  0
  5  6  2  0
  6  7  1  0
  7  8  2  0
  8  9  1  0
  9 10  1  0
 10 11  2  0
 10 12  1  0
 12 13  1  0
 12 14  1  0
 12 15  1  0
  8  3  1  0
  4 16  1  0
  5 17  1  0
  6 18  1  0
  7 19  1  0
  9 20  1  0
M  END
>  <loss>  (24) 
0.4263225495815277

>  <score>  (24) 
7.306581974029541

$$$$
JBLQSXYHCNASCW-UHFFFAOYSA-N
     RDKit          3D

 20 20  0  0  0  0  0  0  0  0999 V2000
  126.9756  121.5444   85.1482 N   0  0  0  0  0  0  0  0  0  0  0  0
  126.4519  121.5776   86.1829 C   0  0  0  0  0  0  0  0  0  0  0  0
  125.7410  121.6440   87.4262 C   0  0  0  0  0  0  0  0  0  0  0  0
  126.4225  121.2675   88.5947 C   0  0  0  0  0  0  0  0  0  0  0  0
  125.7787  121.3134   89.8275 C   0  0  0  0  0  0  0  0  0  0  0  0
  124.4556  121.7347   89.8945 C   0  0  0  0  0  0  0  0  0  0  0  0
  123.7704  122.1115   88.7330 C   0  0  0  0  0  0  0  0  0  0  0  0
  124.3957  122.0741   87.4811 C   0  0  0  0  0  0  0  0  0  0  0  0
  123.7331  122.4489   86.2791 N   0  0  0  0  0  0  0  0  0  0  0  0
  122.5422  121.9341   85.7466 C   0  0  0  0  0  0  0  0  0  0  0  0
  122.1167  120.8050   85.9900 O   0  0  0  0  0  0  0  0  0  0  0  0
  121.7965  122.9262   84.8097 C   0  0  0  0  0  0  0  0  0  0  0  0
  121.5252  124.4476   85.7073 Cl  0  0  0  0  0  0  0  0  0  0  0  0
  122.8379  123.2492   83.3937 Cl  0  0  0  0  0  0  0  0  0  0  0  0
  120.2390  122.2631   84.2695 Cl  0  0  0  0  0  0  0  0  0  0  0  0
  127.4693  120.9350   88.5353 H   0  0  0  0  0  0  0  0  0  0  0  0
  126.3131  121.0183   90.7426 H   0  0  0  0  0  0  0  0  0  0  0  0
  123.9432  121.7724   90.8672 H   0  0  0  0  0  0  0  0  0  0  0  0
  122.7238  122.4422   88.8055 H   0  0  0  0  0  0  0  0  0  0  0  0
  124.1858  123.1935   85.7299 H   0  0  0  0  0  0  0  0  0  0  0  0
  1  2  3  0
  2  3  1  0
  3  4  2  0
  4  5  1  0
  5  6  2  0
  6  7  1  0
  7  8  2  0
  8  9  1  0
  9 10  1  0
 10 11  2  0
 10 12  1  0
 12 13  1  0
 12 14  1  0
 12 15  1  0
  8  3  1  0
  4 16  1  0
  5 17  1  0
  6 18  1  0
  7 19  1  0
  9 20  1  0
M  END
>  <loss>  (25) 
0.4393636882305145

>  <score>  (25) 
7.345228672027588

$$$$
