KCUIBCLVAOOEPR-UHFFFAOYSA-N
     RDKit          3D

 40 40  0  0  0  0  0  0  0  0999 V2000
  118.8645  121.0981   83.0344 C   0  0  0  0  0  0  0  0  0  0  0  0
  119.9495  121.5365   84.0030 C   0  0  0  0  0  0  0  0  0  0  0  0
  120.0360  123.0174   84.0116 N   0  0  0  0  0  0  0  0  0  0  0  0
  120.9917  123.5950   83.0335 C   0  0  0  0  0  0  0  0  0  0  0  0
  120.2432  124.2398   81.8774 C   0  0  0  0  0  0  0  0  0  0  0  0
  119.9161  123.7832   85.5300 S   0  0  0  0  0  6  0  0  0  0  0  0
  120.3045  125.1699   85.3912 O   0  0  0  0  0  0  0  0  0  0  0  0
  118.6371  123.4236   86.1079 O   0  0  0  0  0  0  0  0  0  0  0  0
  121.1773  122.9765   86.5007 C   0  0  0  0  0  0  0  0  0  0  0  0
  120.8701  122.4907   87.7740 C   0  0  0  0  0  0  0  0  0  0  0  0
  121.8682  121.8957   88.5489 C   0  0  0  0  0  0  0  0  0  0  0  0
  123.1692  121.7846   88.0493 C   0  0  0  0  0  0  0  0  0  0  0  0
  124.2257  121.2124   88.7202 O   0  0  0  0  0  0  0  0  0  0  0  0
  124.6855  121.8783   89.8914 C   0  0  0  0  0  0  0  0  0  0  0  0
  123.4727  122.2742   86.7588 C   0  0  0  0  0  0  0  0  0  0  0  0
  124.8042  122.1131   86.3165 N   0  0  0  0  0  0  0  0  0  0  0  0
  125.2546  121.6419   85.0831 C   0  0  0  0  0  0  0  0  0  0  0  0
  124.5837  120.9079   84.3552 O   0  0  0  0  0  0  0  0  0  0  0  0
  126.6823  122.1235   84.7109 C   0  0  0  0  0  0  0  0  0  0  0  0
  126.8542  122.3325   82.9530 Cl  0  0  0  0  0  0  0  0  0  0  0  0
  127.8671  120.9076   85.2797 Cl  0  0  0  0  0  0  0  0  0  0  0  0
  126.9836  123.6767   85.5385 Cl  0  0  0  0  0  0  0  0  0  0  0  0
  122.4798  122.8938   86.0004 C   0  0  0  0  0  0  0  0  0  0  0  0
  117.9896  120.7445   83.5996 H   0  0  0  0  0  0  0  0  0  0  0  0
  118.5727  121.9488   82.4012 H   0  0  0  0  0  0  0  0  0  0  0  0
  119.2457  120.2834   82.4012 H   0  0  0  0  0  0  0  0  0  0  0  0
  119.7056  121.1776   85.0138 H   0  0  0  0  0  0  0  0  0  0  0  0
  120.9151  121.1148   83.6871 H   0  0  0  0  0  0  0  0  0  0  0  0
  121.6082  124.3555   83.5351 H   0  0  0  0  0  0  0  0  0  0  0  0
  121.6298  122.7899   82.6403 H   0  0  0  0  0  0  0  0  0  0  0  0
  119.4653  124.9098   82.2725 H   0  0  0  0  0  0  0  0  0  0  0  0
  120.9475  124.8185   81.2618 H   0  0  0  0  0  0  0  0  0  0  0  0
  119.7752  123.4574   81.2618 H   0  0  0  0  0  0  0  0  0  0  0  0
  119.8456  122.5765   88.1650 H   0  0  0  0  0  0  0  0  0  0  0  0
  121.6306  121.5143   89.5529 H   0  0  0  0  0  0  0  0  0  0  0  0
  124.3191  121.3477   90.7826 H   0  0  0  0  0  0  0  0  0  0  0  0
  125.7854  121.8905   89.8983 H   0  0  0  0  0  0  0  0  0  0  0  0
  124.3073  122.9112   89.8983 H   0  0  0  0  0  0  0  0  0  0  0  0
  125.5365  122.3775   86.9908 H   0  0  0  0  0  0  0  0  0  0  0  0
  122.7205  123.3154   85.0133 H   0  0  0  0  0  0  0  0  0  0  0  0
  1  2  1  0
  2  3  1  0
  3  4  1  0
  4  5  1  0
  3  6  1  0
  6  7  2  0
  6  8  2  0
  6  9  1  0
  9 10  2  0
 10 11  1  0
 11 12  2  0
 12 13  1  0
 13 14  1  0
 12 15  1  0
 15 16  1  0
 16 17  1  0
 17 18  2  0
 17 19  1  0
 19 20  1  0
 19 21  1  0
 19 22  1  0
 15 23  2  0
 23  9  1  0
  1 24  1  0
  1 25  1  0
  1 26  1  0
  2 27  1  0
  2 28  1  0
  4 29  1  0
  4 30  1  0
  5 31  1  0
  5 32  1  0
  5 33  1  0
 10 34  1  0
 11 35  1  0
 14 36  1  0
 14 37  1  0
 14 38  1  0
 16 39  1  0
 23 40  1  0
M  END
>  <loss>  (1) 
0.511191725730896

>  <score>  (1) 
4.4200239181518555

$$$$
KCUIBCLVAOOEPR-UHFFFAOYSA-N
     RDKit          3D

 40 40  0  0  0  0  0  0  0  0999 V2000
  118.3764  121.1635   83.2914 C   0  0  0  0  0  0  0  0  0  0  0  0
  119.6424  121.5603   84.0312 C   0  0  0  0  0  0  0  0  0  0  0  0
  119.7798  123.0372   84.0198 N   0  0  0  0  0  0  0  0  0  0  0  0
  120.7146  123.5718   82.9980 C   0  0  0  0  0  0  0  0  0  0  0  0
  119.9439  124.0987   81.7976 C   0  0  0  0  0  0  0  0  0  0  0  0
  119.7473  123.8216   85.5332 S   0  0  0  0  0  6  0  0  0  0  0  0
  120.1209  125.2078   85.3544 O   0  0  0  0  0  0  0  0  0  0  0  0
  118.5065  123.4648   86.1906 O   0  0  0  0  0  0  0  0  0  0  0  0
  121.0675  123.0315   86.4368 C   0  0  0  0  0  0  0  0  0  0  0  0
  120.8293  122.5297   87.7187 C   0  0  0  0  0  0  0  0  0  0  0  0
  121.8736  121.9478   88.4408 C   0  0  0  0  0  0  0  0  0  0  0  0
  123.1516  121.8656   87.8802 C   0  0  0  0  0  0  0  0  0  0  0  0
  124.2489  121.3084   88.4961 O   0  0  0  0  0  0  0  0  0  0  0  0
  124.5445  121.7514   89.8162 C   0  0  0  0  0  0  0  0  0  0  0  0
  123.3852  122.3713   86.5814 C   0  0  0  0  0  0  0  0  0  0  0  0
  124.6974  122.2393   86.0761 N   0  0  0  0  0  0  0  0  0  0  0  0
  125.1046  121.6896   84.8603 C   0  0  0  0  0  0  0  0  0  0  0  0
  124.4594  120.8287   84.2592 O   0  0  0  0  0  0  0  0  0  0  0  0
  126.4489  122.2586   84.3334 C   0  0  0  0  0  0  0  0  0  0  0  0
  126.3871  122.5372   82.5779 Cl  0  0  0  0  0  0  0  0  0  0  0  0
  127.7532  121.0882   84.7001 Cl  0  0  0  0  0  0  0  0  0  0  0  0
  126.7772  123.7960   85.1801 Cl  0  0  0  0  0  0  0  0  0  0  0  0
  122.3464  122.9778   85.8756 C   0  0  0  0  0  0  0  0  0  0  0  0
  117.5889  120.9167   84.0187 H   0  0  0  0  0  0  0  0  0  0  0  0
  118.0432  122.0003   82.6600 H   0  0  0  0  0  0  0  0  0  0  0  0
  118.5804  120.2862   82.6600 H   0  0  0  0  0  0  0  0  0  0  0  0
  119.5861  121.2053   85.0709 H   0  0  0  0  0  0  0  0  0  0  0  0
  120.5138  121.1072   83.5357 H   0  0  0  0  0  0  0  0  0  0  0  0
  121.3032  124.3901   83.4383 H   0  0  0  0  0  0  0  0  0  0  0  0
  121.3813  122.7622   82.6663 H   0  0  0  0  0  0  0  0  0  0  0  0
  119.0822  124.6877   82.1449 H   0  0  0  0  0  0  0  0  0  0  0  0
  120.6029  124.7361   81.1899 H   0  0  0  0  0  0  0  0  0  0  0  0
  119.5891  123.2532   81.1899 H   0  0  0  0  0  0  0  0  0  0  0  0
  119.8227  122.5927   88.1578 H   0  0  0  0  0  0  0  0  0  0  0  0
  121.6903  121.5538   89.4514 H   0  0  0  0  0  0  0  0  0  0  0  0
  124.0867  121.0654   90.5442 H   0  0  0  0  0  0  0  0  0  0  0  0
  125.6346  121.7670   89.9623 H   0  0  0  0  0  0  0  0  0  0  0  0
  124.1404  122.7640   89.9623 H   0  0  0  0  0  0  0  0  0  0  0  0
  125.4501  122.5945   86.6829 H   0  0  0  0  0  0  0  0  0  0  0  0
  122.5327  123.4118   84.8822 H   0  0  0  0  0  0  0  0  0  0  0  0
  1  2  1  0
  2  3  1  0
  3  4  1  0
  4  5  1  0
  3  6  1  0
  6  7  2  0
  6  8  2  0
  6  9  1  0
  9 10  2  0
 10 11  1  0
 11 12  2  0
 12 13  1  0
 13 14  1  0
 12 15  1  0
 15 16  1  0
 16 17  1  0
 17 18  2  0
 17 19  1  0
 19 20  1  0
 19 21  1  0
 19 22  1  0
 15 23  2  0
 23  9  1  0
  1 24  1  0
  1 25  1  0
  1 26  1  0
  2 27  1  0
  2 28  1  0
  4 29  1  0
  4 30  1  0
  5 31  1  0
  5 32  1  0
  5 33  1  0
 10 34  1  0
 11 35  1  0
 14 36  1  0
 14 37  1  0
 14 38  1  0
 16 39  1  0
 23 40  1  0
M  END
>  <loss>  (2) 
0.507333517074585

>  <score>  (2) 
4.348621368408203

$$$$
KCUIBCLVAOOEPR-UHFFFAOYSA-N
     RDKit          3D

 40 40  0  0  0  0  0  0  0  0999 V2000
  119.6772  124.6330   82.1522 C   0  0  0  0  0  0  0  0  0  0  0  0
  120.7158  123.7520   82.8268 C   0  0  0  0  0  0  0  0  0  0  0  0
  120.0631  122.9154   83.8522 N   0  0  0  0  0  0  0  0  0  0  0  0
  120.0567  121.4590   83.6191 C   0  0  0  0  0  0  0  0  0  0  0  0
  119.3855  121.0680   82.3155 C   0  0  0  0  0  0  0  0  0  0  0  0
  119.7683  123.5429   85.3904 S   0  0  0  0  0  6  0  0  0  0  0  0
  119.9615  124.9767   85.3576 O   0  0  0  0  0  0  0  0  0  0  0  0
  118.5262  122.9705   85.8690 O   0  0  0  0  0  0  0  0  0  0  0  0
  121.0738  122.8725   86.4015 C   0  0  0  0  0  0  0  0  0  0  0  0
  120.7926  122.4430   87.7015 C   0  0  0  0  0  0  0  0  0  0  0  0
  121.8192  121.9429   88.5057 C   0  0  0  0  0  0  0  0  0  0  0  0
  123.1240  121.8709   88.0101 C   0  0  0  0  0  0  0  0  0  0  0  0
  124.2082  121.3909   88.7088 O   0  0  0  0  0  0  0  0  0  0  0  0
  124.3320  121.7950   90.0681 C   0  0  0  0  0  0  0  0  0  0  0  0
  123.4030  122.3067   86.6950 C   0  0  0  0  0  0  0  0  0  0  0  0
  124.7427  122.1942   86.2617 N   0  0  0  0  0  0  0  0  0  0  0  0
  125.2259  121.6712   85.0621 C   0  0  0  0  0  0  0  0  0  0  0  0
  124.5815  120.8957   84.3536 O   0  0  0  0  0  0  0  0  0  0  0  0
  126.6546  122.1561   84.6980 C   0  0  0  0  0  0  0  0  0  0  0  0
  126.7865  122.5287   82.9636 Cl  0  0  0  0  0  0  0  0  0  0  0  0
  127.0132  123.6172   85.6601 Cl  0  0  0  0  0  0  0  0  0  0  0  0
  127.8251  120.8676   85.1160 Cl  0  0  0  0  0  0  0  0  0  0  0  0
  122.3791  122.8289   85.9050 C   0  0  0  0  0  0  0  0  0  0  0  0
  119.0757  125.1433   82.9188 H   0  0  0  0  0  0  0  0  0  0  0  0
  120.1832  125.3816   81.5248 H   0  0  0  0  0  0  0  0  0  0  0  0
  119.0212  124.0117   81.5248 H   0  0  0  0  0  0  0  0  0  0  0  0
  121.1915  123.1052   82.0748 H   0  0  0  0  0  0  0  0  0  0  0  0
  121.4789  124.3852   83.3029 H   0  0  0  0  0  0  0  0  0  0  0  0
  121.0974  121.1033   83.5975 H   0  0  0  0  0  0  0  0  0  0  0  0
  119.4811  120.9986   84.4355 H   0  0  0  0  0  0  0  0  0  0  0  0
  118.4535  120.5250   82.5314 H   0  0  0  0  0  0  0  0  0  0  0  0
  119.1561  121.9738   81.7351 H   0  0  0  0  0  0  0  0  0  0  0  0
  120.0604  120.4217   81.7351 H   0  0  0  0  0  0  0  0  0  0  0  0
  119.7651  122.4987   88.0903 H   0  0  0  0  0  0  0  0  0  0  0  0
  121.6006  121.6055   89.5297 H   0  0  0  0  0  0  0  0  0  0  0  0
  124.0737  120.9522   90.7261 H   0  0  0  0  0  0  0  0  0  0  0  0
  125.3677  122.1094   90.2642 H   0  0  0  0  0  0  0  0  0  0  0  0
  123.6502  122.6357   90.2642 H   0  0  0  0  0  0  0  0  0  0  0  0
  125.4561  122.5441   86.9172 H   0  0  0  0  0  0  0  0  0  0  0  0
  122.5984  123.2050   84.8948 H   0  0  0  0  0  0  0  0  0  0  0  0
  1  2  1  0
  2  3  1  0
  3  4  1  0
  4  5  1  0
  3  6  1  0
  6  7  2  0
  6  8  2  0
  6  9  1  0
  9 10  2  0
 10 11  1  0
 11 12  2  0
 12 13  1  0
 13 14  1  0
 12 15  1  0
 15 16  1  0
 16 17  1  0
 17 18  2  0
 17 19  1  0
 19 20  1  0
 19 21  1  0
 19 22  1  0
 15 23  2  0
 23  9  1  0
  1 24  1  0
  1 25  1  0
  1 26  1  0
  2 27  1  0
  2 28  1  0
  4 29  1  0
  4 30  1  0
  5 31  1  0
  5 32  1  0
  5 33  1  0
 10 34  1  0
 11 35  1  0
 14 36  1  0
 14 37  1  0
 14 38  1  0
 16 39  1  0
 23 40  1  0
M  END
>  <loss>  (3) 
0.5125346183776855

>  <score>  (3) 
4.363009452819824

$$$$
KCUIBCLVAOOEPR-UHFFFAOYSA-N
     RDKit          3D

 40 40  0  0  0  0  0  0  0  0999 V2000
  120.8765  126.1251   83.1428 C   0  0  0  0  0  0  0  0  0  0  0  0
  120.8201  125.1960   84.3413 C   0  0  0  0  0  0  0  0  0  0  0  0
  120.2877  123.8603   84.0131 N   0  0  0  0  0  0  0  0  0  0  0  0
  120.6816  123.2868   82.7118 C   0  0  0  0  0  0  0  0  0  0  0  0
  119.4469  122.7812   81.9839 C   0  0  0  0  0  0  0  0  0  0  0  0
  119.6629  122.8614   85.2208 S   0  0  0  0  0  6  0  0  0  0  0  0
  118.6683  123.6216   85.9505 O   0  0  0  0  0  0  0  0  0  0  0  0
  119.3385  121.5742   84.6445 O   0  0  0  0  0  0  0  0  0  0  0  0
  121.0320  122.5959   86.3303 C   0  0  0  0  0  0  0  0  0  0  0  0
  120.7926  122.4118   87.6951 C   0  0  0  0  0  0  0  0  0  0  0  0
  121.8613  122.1761   88.5628 C   0  0  0  0  0  0  0  0  0  0  0  0
  123.1671  122.1262   88.0668 C   0  0  0  0  0  0  0  0  0  0  0  0
  124.2926  121.9086   88.8282 O   0  0  0  0  0  0  0  0  0  0  0  0
  124.1157  121.2215   90.0622 C   0  0  0  0  0  0  0  0  0  0  0  0
  123.4037  122.3128   86.6861 C   0  0  0  0  0  0  0  0  0  0  0  0
  124.7498  122.2580   86.2615 N   0  0  0  0  0  0  0  0  0  0  0  0
  125.2736  121.6683   85.1108 C   0  0  0  0  0  0  0  0  0  0  0  0
  124.6384  120.8849   84.4027 O   0  0  0  0  0  0  0  0  0  0  0  0
  126.7350  122.0893   84.8012 C   0  0  0  0  0  0  0  0  0  0  0  0
  127.8144  120.7387   85.2485 Cl  0  0  0  0  0  0  0  0  0  0  0  0
  127.1425  123.5269   85.7871 Cl  0  0  0  0  0  0  0  0  0  0  0  0
  126.9417  122.4813   83.0784 Cl  0  0  0  0  0  0  0  0  0  0  0  0
  122.3307  122.5226   85.8201 C   0  0  0  0  0  0  0  0  0  0  0  0
  120.9398  127.1672   83.4893 H   0  0  0  0  0  0  0  0  0  0  0  0
  121.7618  125.8863   82.5352 H   0  0  0  0  0  0  0  0  0  0  0  0
  119.9688  125.9952   82.5352 H   0  0  0  0  0  0  0  0  0  0  0  0
  121.8380  125.0786   84.7415 H   0  0  0  0  0  0  0  0  0  0  0  0
  120.1385  125.6494   85.0761 H   0  0  0  0  0  0  0  0  0  0  0  0
  121.1736  124.0606   82.1044 H   0  0  0  0  0  0  0  0  0  0  0  0
  121.3772  122.4507   82.8761 H   0  0  0  0  0  0  0  0  0  0  0  0
  118.6894  122.4710   82.7188 H   0  0  0  0  0  0  0  0  0  0  0  0
  119.0385  123.5845   81.3531 H   0  0  0  0  0  0  0  0  0  0  0  0
  119.7192  121.9221   81.3531 H   0  0  0  0  0  0  0  0  0  0  0  0
  119.7648  122.4525   88.0848 H   0  0  0  0  0  0  0  0  0  0  0  0
  121.6753  122.0295   89.6370 H   0  0  0  0  0  0  0  0  0  0  0  0
  124.2943  121.9152   90.8970 H   0  0  0  0  0  0  0  0  0  0  0  0
  123.0883  120.8331   90.1216 H   0  0  0  0  0  0  0  0  0  0  0  0
  124.8278  120.3852   90.1216 H   0  0  0  0  0  0  0  0  0  0  0  0
  125.4340  122.7130   86.8826 H   0  0  0  0  0  0  0  0  0  0  0  0
  122.5061  122.6299   84.7395 H   0  0  0  0  0  0  0  0  0  0  0  0
  1  2  1  0
  2  3  1  0
  3  4  1  0
  4  5  1  0
  3  6  1  0
  6  7  2  0
  6  8  2  0
  6  9  1  0
  9 10  2  0
 10 11  1  0
 11 12  2  0
 12 13  1  0
 13 14  1  0
 12 15  1  0
 15 16  1  0
 16 17  1  0
 17 18  2  0
 17 19  1  0
 19 20  1  0
 19 21  1  0
 19 22  1  0
 15 23  2  0
 23  9  1  0
  1 24  1  0
  1 25  1  0
  1 26  1  0
  2 27  1  0
  2 28  1  0
  4 29  1  0
  4 30  1  0
  5 31  1  0
  5 32  1  0
  5 33  1  0
 10 34  1  0
 11 35  1  0
 14 36  1  0
 14 37  1  0
 14 38  1  0
 16 39  1  0
 23 40  1  0
M  END
>  <loss>  (4) 
0.5027959942817688

>  <score>  (4) 
4.297638893127441

$$$$
KCUIBCLVAOOEPR-UHFFFAOYSA-N
     RDKit          3D

 40 40  0  0  0  0  0  0  0  0999 V2000
  118.8035  121.0818   82.9717 C   0  0  0  0  0  0  0  0  0  0  0  0
  119.8466  121.5212   83.9847 C   0  0  0  0  0  0  0  0  0  0  0  0
  120.0058  122.9947   83.9234 N   0  0  0  0  0  0  0  0  0  0  0  0
  120.9914  123.4775   82.9237 C   0  0  0  0  0  0  0  0  0  0  0  0
  120.2780  124.0779   81.7224 C   0  0  0  0  0  0  0  0  0  0  0  0
  119.9199  123.8371   85.4031 S   0  0  0  0  0  6  0  0  0  0  0  0
  120.3731  125.1959   85.1998 O   0  0  0  0  0  0  0  0  0  0  0  0
  118.6245  123.5658   85.9928 O   0  0  0  0  0  0  0  0  0  0  0  0
  121.1404  123.0196   86.4158 C   0  0  0  0  0  0  0  0  0  0  0  0
  120.7889  122.5464   87.6824 C   0  0  0  0  0  0  0  0  0  0  0  0
  121.7552  121.9429   88.4902 C   0  0  0  0  0  0  0  0  0  0  0  0
  123.0687  121.8106   88.0303 C   0  0  0  0  0  0  0  0  0  0  0  0
  124.0968  121.2285   88.7358 O   0  0  0  0  0  0  0  0  0  0  0  0
  124.5040  121.8741   89.9374 C   0  0  0  0  0  0  0  0  0  0  0  0
  123.4171  122.2875   86.7463 C   0  0  0  0  0  0  0  0  0  0  0  0
  124.7588  122.1053   86.3448 N   0  0  0  0  0  0  0  0  0  0  0  0
  125.2396  121.6472   85.1179 C   0  0  0  0  0  0  0  0  0  0  0  0
  124.5765  120.9443   84.3532 O   0  0  0  0  0  0  0  0  0  0  0  0
  126.6902  122.1007   84.8038 C   0  0  0  0  0  0  0  0  0  0  0  0
  127.0623  121.9185   83.0741 Cl  0  0  0  0  0  0  0  0  0  0  0  0
  127.8263  121.1011   85.7607 Cl  0  0  0  0  0  0  0  0  0  0  0  0
  126.8587  123.8124   85.2832 Cl  0  0  0  0  0  0  0  0  0  0  0  0
  122.4558  122.9157   85.9549 C   0  0  0  0  0  0  0  0  0  0  0  0
  117.9143  120.7072   83.4999 H   0  0  0  0  0  0  0  0  0  0  0  0
  118.5218  121.9377   82.3407 H   0  0  0  0  0  0  0  0  0  0  0  0
  119.2191  120.2823   82.3407 H   0  0  0  0  0  0  0  0  0  0  0  0
  119.5227  121.2291   84.9946 H   0  0  0  0  0  0  0  0  0  0  0  0
  120.8078  121.0387   83.7540 H   0  0  0  0  0  0  0  0  0  0  0  0
  121.6306  124.2441   83.3860 H   0  0  0  0  0  0  0  0  0  0  0  0
  121.6032  122.6276   82.5870 H   0  0  0  0  0  0  0  0  0  0  0  0
  119.4792  124.7503   82.0687 H   0  0  0  0  0  0  0  0  0  0  0  0
  120.9978  124.6461   81.1148 H   0  0  0  0  0  0  0  0  0  0  0  0
  119.8410  123.2718   81.1148 H   0  0  0  0  0  0  0  0  0  0  0  0
  119.7545  122.6489   88.0423 H   0  0  0  0  0  0  0  0  0  0  0  0
  121.4826  121.5715   89.4891 H   0  0  0  0  0  0  0  0  0  0  0  0
  124.1419  121.2999   90.8030 H   0  0  0  0  0  0  0  0  0  0  0  0
  125.6021  121.9315   89.9688 H   0  0  0  0  0  0  0  0  0  0  0  0
  124.0827  122.8897   89.9688 H   0  0  0  0  0  0  0  0  0  0  0  0
  125.4739  122.3408   87.0477 H   0  0  0  0  0  0  0  0  0  0  0  0
  122.7315  123.3274   84.9729 H   0  0  0  0  0  0  0  0  0  0  0  0
  1  2  1  0
  2  3  1  0
  3  4  1  0
  4  5  1  0
  3  6  1  0
  6  7  2  0
  6  8  2  0
  6  9  1  0
  9 10  2  0
 10 11  1  0
 11 12  2  0
 12 13  1  0
 13 14  1  0
 12 15  1  0
 15 16  1  0
 16 17  1  0
 17 18  2  0
 17 19  1  0
 19 20  1  0
 19 21  1  0
 19 22  1  0
 15 23  2  0
 23  9  1  0
  1 24  1  0
  1 25  1  0
  1 26  1  0
  2 27  1  0
  2 28  1  0
  4 29  1  0
  4 30  1  0
  5 31  1  0
  5 32  1  0
  5 33  1  0
 10 34  1  0
 11 35  1  0
 14 36  1  0
 14 37  1  0
 14 38  1  0
 16 39  1  0
 23 40  1  0
M  END
>  <loss>  (5) 
0.514220654964447

>  <score>  (5) 
4.338913440704346

$$$$
KCUIBCLVAOOEPR-UHFFFAOYSA-N
     RDKit          3D

 40 40  0  0  0  0  0  0  0  0999 V2000
  118.9808  121.3563   82.6206 C   0  0  0  0  0  0  0  0  0  0  0  0
  120.0859  121.6793   83.6115 C   0  0  0  0  0  0  0  0  0  0  0  0
  120.1271  123.1433   83.8467 N   0  0  0  0  0  0  0  0  0  0  0  0
  121.1976  123.8657   83.1146 C   0  0  0  0  0  0  0  0  0  0  0  0
  120.5990  124.7290   82.0151 C   0  0  0  0  0  0  0  0  0  0  0  0
  119.7657  123.6764   85.4252 S   0  0  0  0  0  6  0  0  0  0  0  0
  119.9447  125.1105   85.4916 O   0  0  0  0  0  0  0  0  0  0  0  0
  118.5146  123.0641   85.8241 O   0  0  0  0  0  0  0  0  0  0  0  0
  121.0524  122.9375   86.4160 C   0  0  0  0  0  0  0  0  0  0  0  0
  120.7497  122.4279   87.6811 C   0  0  0  0  0  0  0  0  0  0  0  0
  121.7654  121.8864   88.4721 C   0  0  0  0  0  0  0  0  0  0  0  0
  123.0797  121.8522   87.9968 C   0  0  0  0  0  0  0  0  0  0  0  0
  124.1544  121.3374   88.6851 O   0  0  0  0  0  0  0  0  0  0  0  0
  124.3906  121.8486   89.9924 C   0  0  0  0  0  0  0  0  0  0  0  0
  123.3789  122.3654   86.7145 C   0  0  0  0  0  0  0  0  0  0  0  0
  124.7254  122.2829   86.2968 N   0  0  0  0  0  0  0  0  0  0  0  0
  125.2333  121.7343   85.1190 C   0  0  0  0  0  0  0  0  0  0  0  0
  124.5774  120.9981   84.3797 O   0  0  0  0  0  0  0  0  0  0  0  0
  126.7041  122.1328   84.8246 C   0  0  0  0  0  0  0  0  0  0  0  0
  127.0851  123.6034   85.7629 Cl  0  0  0  0  0  0  0  0  0  0  0  0
  126.9539  122.4409   83.0908 Cl  0  0  0  0  0  0  0  0  0  0  0  0
  127.7781  120.7993   85.3481 Cl  0  0  0  0  0  0  0  0  0  0  0  0
  122.3666  122.9318   85.9401 C   0  0  0  0  0  0  0  0  0  0  0  0
  118.0647  121.0886   83.1674 H   0  0  0  0  0  0  0  0  0  0  0  0
  118.7868  122.2353   81.9884 H   0  0  0  0  0  0  0  0  0  0  0  0
  119.2907  120.5111   81.9884 H   0  0  0  0  0  0  0  0  0  0  0  0
  119.8895  121.1607   84.5616 H   0  0  0  0  0  0  0  0  0  0  0  0
  121.0520  121.3460   83.2047 H   0  0  0  0  0  0  0  0  0  0  0  0
  121.7491  124.5064   83.8185 H   0  0  0  0  0  0  0  0  0  0  0  0
  121.8776  123.1302   82.6601 H   0  0  0  0  0  0  0  0  0  0  0  0
  120.0274  125.5534   82.4664 H   0  0  0  0  0  0  0  0  0  0  0  0
  121.4064  125.1408   81.3918 H   0  0  0  0  0  0  0  0  0  0  0  0
  119.9302  124.1173   81.3918 H   0  0  0  0  0  0  0  0  0  0  0  0
  119.7148  122.4531   88.0530 H   0  0  0  0  0  0  0  0  0  0  0  0
  121.5311  121.4865   89.4697 H   0  0  0  0  0  0  0  0  0  0  0  0
  124.0519  121.1157   90.7395 H   0  0  0  0  0  0  0  0  0  0  0  0
  125.4665  122.0358   90.1240 H   0  0  0  0  0  0  0  0  0  0  0  0
  123.8359  122.7893   90.1240 H   0  0  0  0  0  0  0  0  0  0  0  0
  125.4217  122.6783   86.9447 H   0  0  0  0  0  0  0  0  0  0  0  0
  122.6013  123.3718   84.9597 H   0  0  0  0  0  0  0  0  0  0  0  0
  1  2  1  0
  2  3  1  0
  3  4  1  0
  4  5  1  0
  3  6  1  0
  6  7  2  0
  6  8  2  0
  6  9  1  0
  9 10  2  0
 10 11  1  0
 11 12  2  0
 12 13  1  0
 13 14  1  0
 12 15  1  0
 15 16  1  0
 16 17  1  0
 17 18  2  0
 17 19  1  0
 19 20  1  0
 19 21  1  0
 19 22  1  0
 15 23  2  0
 23  9  1  0
  1 24  1  0
  1 25  1  0
  1 26  1  0
  2 27  1  0
  2 28  1  0
  4 29  1  0
  4 30  1  0
  5 31  1  0
  5 32  1  0
  5 33  1  0
 10 34  1  0
 11 35  1  0
 14 36  1  0
 14 37  1  0
 14 38  1  0
 16 39  1  0
 23 40  1  0
M  END
>  <loss>  (6) 
0.5272526741027832

>  <score>  (6) 
4.403921604156494

$$$$
KCUIBCLVAOOEPR-UHFFFAOYSA-N
     RDKit          3D

 40 40  0  0  0  0  0  0  0  0999 V2000
  120.2588  125.7404   82.7194 C   0  0  0  0  0  0  0  0  0  0  0  0
  121.0165  124.8316   83.6695 C   0  0  0  0  0  0  0  0  0  0  0  0
  120.3702  123.5186   83.8528 N   0  0  0  0  0  0  0  0  0  0  0  0
  120.7042  122.4682   82.8716 C   0  0  0  0  0  0  0  0  0  0  0  0
  119.4751  122.1388   82.0406 C   0  0  0  0  0  0  0  0  0  0  0  0
  119.6717  123.1010   85.3308 S   0  0  0  0  0  6  0  0  0  0  0  0
  119.0556  124.2923   85.8790 O   0  0  0  0  0  0  0  0  0  0  0  0
  118.9112  121.8814   85.1629 O   0  0  0  0  0  0  0  0  0  0  0  0
  121.0563  122.7016   86.3794 C   0  0  0  0  0  0  0  0  0  0  0  0
  120.8400  122.3921   87.7252 C   0  0  0  0  0  0  0  0  0  0  0  0
  121.9201  122.0518   88.5426 C   0  0  0  0  0  0  0  0  0  0  0  0
  123.2142  122.0228   88.0155 C   0  0  0  0  0  0  0  0  0  0  0  0
  124.3495  121.7096   88.7276 O   0  0  0  0  0  0  0  0  0  0  0  0
  124.1875  121.4350   90.1149 C   0  0  0  0  0  0  0  0  0  0  0  0
  123.4275  122.3364   86.6541 C   0  0  0  0  0  0  0  0  0  0  0  0
  124.7633  122.2948   86.1967 N   0  0  0  0  0  0  0  0  0  0  0  0
  125.2657  121.7033   85.0374 C   0  0  0  0  0  0  0  0  0  0  0  0
  124.6099  120.9361   84.3303 O   0  0  0  0  0  0  0  0  0  0  0  0
  126.7315  122.0999   84.7167 C   0  0  0  0  0  0  0  0  0  0  0  0
  127.8092  121.2104   85.8286 Cl  0  0  0  0  0  0  0  0  0  0  0  0
  126.9245  123.8596   84.9834 Cl  0  0  0  0  0  0  0  0  0  0  0  0
  127.1504  121.7122   83.0320 Cl  0  0  0  0  0  0  0  0  0  0  0  0
  122.3425  122.6508   85.8361 C   0  0  0  0  0  0  0  0  0  0  0  0
  119.6599  126.4588   83.2984 H   0  0  0  0  0  0  0  0  0  0  0  0
  120.9735  126.2858   82.0855 H   0  0  0  0  0  0  0  0  0  0  0  0
  119.5938  125.1355   82.0855 H   0  0  0  0  0  0  0  0  0  0  0  0
  122.0281  124.6710   83.2684 H   0  0  0  0  0  0  0  0  0  0  0  0
  121.0368  125.3272   84.6513 H   0  0  0  0  0  0  0  0  0  0  0  0
  121.5077  122.8261   82.2111 H   0  0  0  0  0  0  0  0  0  0  0  0
  121.0395  121.5651   83.4026 H   0  0  0  0  0  0  0  0  0  0  0  0
  118.6308  121.9125   82.7084 H   0  0  0  0  0  0  0  0  0  0  0  0
  119.2199  123.0002   81.4059 H   0  0  0  0  0  0  0  0  0  0  0  0
  119.6850  121.2652   81.4059 H   0  0  0  0  0  0  0  0  0  0  0  0
  119.8213  122.4165   88.1395 H   0  0  0  0  0  0  0  0  0  0  0  0
  121.7522  121.8066   89.6017 H   0  0  0  0  0  0  0  0  0  0  0  0
  124.6593  122.2348   90.7046 H   0  0  0  0  0  0  0  0  0  0  0  0
  123.1154  121.3853   90.3561 H   0  0  0  0  0  0  0  0  0  0  0  0
  124.6625  120.4726   90.3561 H   0  0  0  0  0  0  0  0  0  0  0  0
  125.4570  122.7622   86.7976 H   0  0  0  0  0  0  0  0  0  0  0  0
  122.4988  122.8579   84.7671 H   0  0  0  0  0  0  0  0  0  0  0  0
  1  2  1  0
  2  3  1  0
  3  4  1  0
  4  5  1  0
  3  6  1  0
  6  7  2  0
  6  8  2  0
  6  9  1  0
  9 10  2  0
 10 11  1  0
 11 12  2  0
 12 13  1  0
 13 14  1  0
 12 15  1  0
 15 16  1  0
 16 17  1  0
 17 18  2  0
 17 19  1  0
 19 20  1  0
 19 21  1  0
 19 22  1  0
 15 23  2  0
 23  9  1  0
  1 24  1  0
  1 25  1  0
  1 26  1  0
  2 27  1  0
  2 28  1  0
  4 29  1  0
  4 30  1  0
  5 31  1  0
  5 32  1  0
  5 33  1  0
 10 34  1  0
 11 35  1  0
 14 36  1  0
 14 37  1  0
 14 38  1  0
 16 39  1  0
 23 40  1  0
M  END
>  <loss>  (7) 
0.5046821236610413

>  <score>  (7) 
4.2750749588012695

$$$$
KCUIBCLVAOOEPR-UHFFFAOYSA-N
     RDKit          3D

 40 40  0  0  0  0  0  0  0  0999 V2000
  120.7200  126.1325   83.2986 C   0  0  0  0  0  0  0  0  0  0  0  0
  120.7260  125.1274   84.4393 C   0  0  0  0  0  0  0  0  0  0  0  0
  120.3332  123.7861   83.9552 N   0  0  0  0  0  0  0  0  0  0  0  0
  121.0099  123.2588   82.7424 C   0  0  0  0  0  0  0  0  0  0  0  0
  120.0603  122.8506   81.6288 C   0  0  0  0  0  0  0  0  0  0  0  0
  119.7315  122.6749   85.0912 S   0  0  0  0  0  6  0  0  0  0  0  0
  119.5553  121.3905   84.4486 O   0  0  0  0  0  0  0  0  0  0  0  0
  118.6349  123.3002   85.8022 O   0  0  0  0  0  0  0  0  0  0  0  0
  121.0781  122.5151   86.2461 C   0  0  0  0  0  0  0  0  0  0  0  0
  120.8081  122.3983   87.6116 C   0  0  0  0  0  0  0  0  0  0  0  0
  121.8602  122.2246   88.5131 C   0  0  0  0  0  0  0  0  0  0  0  0
  123.1779  122.1712   88.0487 C   0  0  0  0  0  0  0  0  0  0  0  0
  124.2887  122.0110   88.8454 O   0  0  0  0  0  0  0  0  0  0  0  0
  124.1271  121.2461   90.0350 C   0  0  0  0  0  0  0  0  0  0  0  0
  123.4445  122.2952   86.6660 C   0  0  0  0  0  0  0  0  0  0  0  0
  124.8014  122.2504   86.2772 N   0  0  0  0  0  0  0  0  0  0  0  0
  125.3584  121.6607   85.1424 C   0  0  0  0  0  0  0  0  0  0  0  0
  124.7484  120.8661   84.4252 O   0  0  0  0  0  0  0  0  0  0  0  0
  126.8200  122.0996   84.8615 C   0  0  0  0  0  0  0  0  0  0  0  0
  127.9176  120.8992   85.5984 Cl  0  0  0  0  0  0  0  0  0  0  0  0
  127.1358  122.2139   83.1149 Cl  0  0  0  0  0  0  0  0  0  0  0  0
  127.0968  123.6991   85.6171 Cl  0  0  0  0  0  0  0  0  0  0  0  0
  122.3888  122.4392   85.7660 C   0  0  0  0  0  0  0  0  0  0  0  0
  120.7139  127.1530   83.7092 H   0  0  0  0  0  0  0  0  0  0  0  0
  121.6190  125.9913   82.6807 H   0  0  0  0  0  0  0  0  0  0  0  0
  119.8227  125.9805   82.6807 H   0  0  0  0  0  0  0  0  0  0  0  0
  121.7373  125.0745   84.8689 H   0  0  0  0  0  0  0  0  0  0  0  0
  120.0042  125.4537   85.2026 H   0  0  0  0  0  0  0  0  0  0  0  0
  121.6813  124.0392   82.3548 H   0  0  0  0  0  0  0  0  0  0  0  0
  121.5473  122.3495   83.0496 H   0  0  0  0  0  0  0  0  0  0  0  0
  119.1328  122.4520   82.0657 H   0  0  0  0  0  0  0  0  0  0  0  0
  119.8255  123.7273   81.0073 H   0  0  0  0  0  0  0  0  0  0  0  0
  120.5349  122.0770   81.0073 H   0  0  0  0  0  0  0  0  0  0  0  0
  119.7710  122.4429   87.9753 H   0  0  0  0  0  0  0  0  0  0  0  0
  121.6522  122.1298   89.5891 H   0  0  0  0  0  0  0  0  0  0  0  0
  124.2646  121.8970   90.9110 H   0  0  0  0  0  0  0  0  0  0  0  0
  123.1172  120.8107   90.0566 H   0  0  0  0  0  0  0  0  0  0  0  0
  124.8747  120.4395   90.0566 H   0  0  0  0  0  0  0  0  0  0  0  0
  125.4657  122.7131   86.9139 H   0  0  0  0  0  0  0  0  0  0  0  0
  122.5864  122.4928   84.6853 H   0  0  0  0  0  0  0  0  0  0  0  0
  1  2  1  0
  2  3  1  0
  3  4  1  0
  4  5  1  0
  3  6  1  0
  6  7  2  0
  6  8  2  0
  6  9  1  0
  9 10  2  0
 10 11  1  0
 11 12  2  0
 12 13  1  0
 13 14  1  0
 12 15  1  0
 15 16  1  0
 16 17  1  0
 17 18  2  0
 17 19  1  0
 19 20  1  0
 19 21  1  0
 19 22  1  0
 15 23  2  0
 23  9  1  0
  1 24  1  0
  1 25  1  0
  1 26  1  0
  2 27  1  0
  2 28  1  0
  4 29  1  0
  4 30  1  0
  5 31  1  0
  5 32  1  0
  5 33  1  0
 10 34  1  0
 11 35  1  0
 14 36  1  0
 14 37  1  0
 14 38  1  0
 16 39  1  0
 23 40  1  0
M  END
>  <loss>  (8) 
0.5132400393486023

>  <score>  (8) 
4.301206111907959

$$$$
KCUIBCLVAOOEPR-UHFFFAOYSA-N
     RDKit          3D

 40 40  0  0  0  0  0  0  0  0999 V2000
  120.8593  126.3545   84.0999 C   0  0  0  0  0  0  0  0  0  0  0  0
  120.3251  125.2357   84.9799 C   0  0  0  0  0  0  0  0  0  0  0  0
  120.0942  124.0106   84.1840 N   0  0  0  0  0  0  0  0  0  0  0  0
  120.7548  123.9086   82.8572 C   0  0  0  0  0  0  0  0  0  0  0  0
  119.8684  123.3356   81.7643 C   0  0  0  0  0  0  0  0  0  0  0  0
  119.7349  122.5751   85.0191 S   0  0  0  0  0  6  0  0  0  0  0  0
  119.8520  121.4566   84.1088 O   0  0  0  0  0  0  0  0  0  0  0  0
  118.5189  122.7833   85.7788 O   0  0  0  0  0  0  0  0  0  0  0  0
  121.0685  122.4512   86.1933 C   0  0  0  0  0  0  0  0  0  0  0  0
  120.7835  122.3812   87.5590 C   0  0  0  0  0  0  0  0  0  0  0  0
  121.8252  122.2356   88.4772 C   0  0  0  0  0  0  0  0  0  0  0  0
  123.1477  122.1635   88.0294 C   0  0  0  0  0  0  0  0  0  0  0  0
  124.2494  122.0276   88.8431 O   0  0  0  0  0  0  0  0  0  0  0  0
  124.0949  121.2338   90.0145 C   0  0  0  0  0  0  0  0  0  0  0  0
  123.4296  122.2401   86.6462 C   0  0  0  0  0  0  0  0  0  0  0  0
  124.7905  122.1791   86.2740 N   0  0  0  0  0  0  0  0  0  0  0  0
  125.3513  121.6084   85.1314 C   0  0  0  0  0  0  0  0  0  0  0  0
  124.7678  120.7756   84.4358 O   0  0  0  0  0  0  0  0  0  0  0  0
  126.7807  122.1209   84.8120 C   0  0  0  0  0  0  0  0  0  0  0  0
  127.9432  120.8250   85.2097 Cl  0  0  0  0  0  0  0  0  0  0  0  0
  126.9386  122.5681   83.0978 Cl  0  0  0  0  0  0  0  0  0  0  0  0
  127.1197  123.5547   85.8296 Cl  0  0  0  0  0  0  0  0  0  0  0  0
  122.3841  122.3562   85.7305 C   0  0  0  0  0  0  0  0  0  0  0  0
  121.2467  127.1661   84.7333 H   0  0  0  0  0  0  0  0  0  0  0  0
  121.6693  125.9665   83.4648 H   0  0  0  0  0  0  0  0  0  0  0  0
  120.0483  126.7405   83.4648 H   0  0  0  0  0  0  0  0  0  0  0  0
  121.0563  125.0191   85.7725 H   0  0  0  0  0  0  0  0  0  0  0  0
  119.3696  125.5571   85.4202 H   0  0  0  0  0  0  0  0  0  0  0  0
  121.0724  124.9163   82.5512 H   0  0  0  0  0  0  0  0  0  0  0  0
  121.5995  123.2142   82.9765 H   0  0  0  0  0  0  0  0  0  0  0  0
  119.0279  122.7923   82.2209 H   0  0  0  0  0  0  0  0  0  0  0  0
  119.4801  124.1541   81.1403 H   0  0  0  0  0  0  0  0  0  0  0  0
  120.4553  122.6455   81.1403 H   0  0  0  0  0  0  0  0  0  0  0  0
  119.7425  122.4404   87.9096 H   0  0  0  0  0  0  0  0  0  0  0  0
  121.6053  122.1776   89.5535 H   0  0  0  0  0  0  0  0  0  0  0  0
  124.2181  121.8671   90.9054 H   0  0  0  0  0  0  0  0  0  0  0  0
  123.0920  120.7820   90.0216 H   0  0  0  0  0  0  0  0  0  0  0  0
  124.8552  120.4389   90.0216 H   0  0  0  0  0  0  0  0  0  0  0  0
  125.4549  122.6121   86.9312 H   0  0  0  0  0  0  0  0  0  0  0  0
  122.5935  122.3729   84.6507 H   0  0  0  0  0  0  0  0  0  0  0  0
  1  2  1  0
  2  3  1  0
  3  4  1  0
  4  5  1  0
  3  6  1  0
  6  7  2  0
  6  8  2  0
  6  9  1  0
  9 10  2  0
 10 11  1  0
 11 12  2  0
 12 13  1  0
 13 14  1  0
 12 15  1  0
 15 16  1  0
 16 17  1  0
 17 18  2  0
 17 19  1  0
 19 20  1  0
 19 21  1  0
 19 22  1  0
 15 23  2  0
 23  9  1  0
  1 24  1  0
  1 25  1  0
  1 26  1  0
  2 27  1  0
  2 28  1  0
  4 29  1  0
  4 30  1  0
  5 31  1  0
  5 32  1  0
  5 33  1  0
 10 34  1  0
 11 35  1  0
 14 36  1  0
 14 37  1  0
 14 38  1  0
 16 39  1  0
 23 40  1  0
M  END
>  <loss>  (9) 
0.506294310092926

>  <score>  (9) 
4.2393717765808105

$$$$
KCUIBCLVAOOEPR-UHFFFAOYSA-N
     RDKit          3D

 40 40  0  0  0  0  0  0  0  0999 V2000
  119.5012  124.2814   81.9646 C   0  0  0  0  0  0  0  0  0  0  0  0
  120.5176  123.6648   82.9115 C   0  0  0  0  0  0  0  0  0  0  0  0
  119.8146  122.9849   84.0164 N   0  0  0  0  0  0  0  0  0  0  0  0
  119.5575  121.5416   83.8549 C   0  0  0  0  0  0  0  0  0  0  0  0
  119.1978  121.1569   82.4317 C   0  0  0  0  0  0  0  0  0  0  0  0
  119.7361  123.7089   85.5384 S   0  0  0  0  0  6  0  0  0  0  0  0
  120.0581  125.1136   85.4074 O   0  0  0  0  0  0  0  0  0  0  0  0
  118.5005  123.2842   86.1650 O   0  0  0  0  0  0  0  0  0  0  0  0
  121.0685  122.9608   86.4555 C   0  0  0  0  0  0  0  0  0  0  0  0
  120.8406  122.4946   87.7534 C   0  0  0  0  0  0  0  0  0  0  0  0
  121.8897  121.9331   88.4846 C   0  0  0  0  0  0  0  0  0  0  0  0
  123.1638  121.8363   87.9183 C   0  0  0  0  0  0  0  0  0  0  0  0
  124.2656  121.2967   88.5418 O   0  0  0  0  0  0  0  0  0  0  0  0
  124.6705  121.8926   89.7695 C   0  0  0  0  0  0  0  0  0  0  0  0
  123.3890  122.3093   86.6057 C   0  0  0  0  0  0  0  0  0  0  0  0
  124.6997  122.1687   86.0984 N   0  0  0  0  0  0  0  0  0  0  0  0
  125.1012  121.6839   84.8535 C   0  0  0  0  0  0  0  0  0  0  0  0
  124.5001  120.7951   84.2474 O   0  0  0  0  0  0  0  0  0  0  0  0
  126.3788  122.3676   84.2974 C   0  0  0  0  0  0  0  0  0  0  0  0
  127.6047  121.1645   83.8351 Cl  0  0  0  0  0  0  0  0  0  0  0  0
  125.9189  123.3415   82.8729 Cl  0  0  0  0  0  0  0  0  0  0  0  0
  127.0533  123.4432   85.5596 Cl  0  0  0  0  0  0  0  0  0  0  0  0
  122.3440  122.8924   85.8893 C   0  0  0  0  0  0  0  0  0  0  0  0
  118.7037  124.7654   82.5474 H   0  0  0  0  0  0  0  0  0  0  0  0
  119.9981  125.0305   81.3306 H   0  0  0  0  0  0  0  0  0  0  0  0
  119.0663  123.4948   81.3306 H   0  0  0  0  0  0  0  0  0  0  0  0
  121.1322  122.9348   82.3642 H   0  0  0  0  0  0  0  0  0  0  0  0
  121.1633  124.4558   83.3206 H   0  0  0  0  0  0  0  0  0  0  0  0
  120.4625  120.9897   84.1487 H   0  0  0  0  0  0  0  0  0  0  0  0
  118.6963  121.2886   84.4908 H   0  0  0  0  0  0  0  0  0  0  0  0
  118.4467  120.3534   82.4478 H   0  0  0  0  0  0  0  0  0  0  0  0
  118.7869  122.0325   81.9079 H   0  0  0  0  0  0  0  0  0  0  0  0
  120.0991  120.8058   81.9079 H   0  0  0  0  0  0  0  0  0  0  0  0
  119.8372  122.5699   88.1979 H   0  0  0  0  0  0  0  0  0  0  0  0
  121.7131  121.5668   89.5067 H   0  0  0  0  0  0  0  0  0  0  0  0
  124.2722  121.3063   90.6106 H   0  0  0  0  0  0  0  0  0  0  0  0
  125.7690  121.9114   89.8232 H   0  0  0  0  0  0  0  0  0  0  0  0
  124.2832  122.9208   89.8232 H   0  0  0  0  0  0  0  0  0  0  0  0
  125.4583  122.4626   86.7302 H   0  0  0  0  0  0  0  0  0  0  0  0
  122.5233  123.2969   84.8822 H   0  0  0  0  0  0  0  0  0  0  0  0
  1  2  1  0
  2  3  1  0
  3  4  1  0
  4  5  1  0
  3  6  1  0
  6  7  2  0
  6  8  2  0
  6  9  1  0
  9 10  2  0
 10 11  1  0
 11 12  2  0
 12 13  1  0
 13 14  1  0
 12 15  1  0
 15 16  1  0
 16 17  1  0
 17 18  2  0
 17 19  1  0
 19 20  1  0
 19 21  1  0
 19 22  1  0
 15 23  2  0
 23  9  1  0
  1 24  1  0
  1 25  1  0
  1 26  1  0
  2 27  1  0
  2 28  1  0
  4 29  1  0
  4 30  1  0
  5 31  1  0
  5 32  1  0
  5 33  1  0
 10 34  1  0
 11 35  1  0
 14 36  1  0
 14 37  1  0
 14 38  1  0
 16 39  1  0
 23 40  1  0
M  END
>  <loss>  (10) 
0.49158990383148193

>  <score>  (10) 
4.165745258331299

$$$$
KCUIBCLVAOOEPR-UHFFFAOYSA-N
     RDKit          3D

 40 40  0  0  0  0  0  0  0  0999 V2000
  119.5792  124.2493   81.8951 C   0  0  0  0  0  0  0  0  0  0  0  0
  120.5571  123.6827   82.9112 C   0  0  0  0  0  0  0  0  0  0  0  0
  119.8112  123.0221   83.9996 N   0  0  0  0  0  0  0  0  0  0  0  0
  119.5042  121.5902   83.8238 C   0  0  0  0  0  0  0  0  0  0  0  0
  119.0756  121.2428   82.4102 C   0  0  0  0  0  0  0  0  0  0  0  0
  119.7338  123.7387   85.5251 S   0  0  0  0  0  6  0  0  0  0  0  0
  120.0640  125.1422   85.4020 O   0  0  0  0  0  0  0  0  0  0  0  0
  118.4945  123.3179   86.1471 O   0  0  0  0  0  0  0  0  0  0  0  0
  121.0600  122.9784   86.4411 C   0  0  0  0  0  0  0  0  0  0  0  0
  120.8258  122.5033   87.7346 C   0  0  0  0  0  0  0  0  0  0  0  0
  121.8701  121.9321   88.4651 C   0  0  0  0  0  0  0  0  0  0  0  0
  123.1458  121.8345   87.9024 C   0  0  0  0  0  0  0  0  0  0  0  0
  124.2433  121.2858   88.5256 O   0  0  0  0  0  0  0  0  0  0  0  0
  124.6545  121.8794   89.7523 C   0  0  0  0  0  0  0  0  0  0  0  0
  123.3774  122.3165   86.5943 C   0  0  0  0  0  0  0  0  0  0  0  0
  124.6893  122.1745   86.0904 N   0  0  0  0  0  0  0  0  0  0  0  0
  125.0939  121.6807   84.8500 C   0  0  0  0  0  0  0  0  0  0  0  0
  124.5062  120.7733   84.2584 O   0  0  0  0  0  0  0  0  0  0  0  0
  126.3565  122.3799   84.2792 C   0  0  0  0  0  0  0  0  0  0  0  0
  125.9503  123.4047   82.8831 Cl  0  0  0  0  0  0  0  0  0  0  0  0
  127.0784  123.3773   85.5727 Cl  0  0  0  0  0  0  0  0  0  0  0  0
  127.5296  121.1268   83.7706 Cl  0  0  0  0  0  0  0  0  0  0  0  0
  122.3372  122.9092   85.8787 C   0  0  0  0  0  0  0  0  0  0  0  0
  118.7433  124.7336   82.4212 H   0  0  0  0  0  0  0  0  0  0  0  0
  120.0935  124.9893   81.2643 H   0  0  0  0  0  0  0  0  0  0  0  0
  119.1930  123.4351   81.2643 H   0  0  0  0  0  0  0  0  0  0  0  0
  121.2129  122.9494   82.4190 H   0  0  0  0  0  0  0  0  0  0  0  0
  121.1656  124.4989   83.3278 H   0  0  0  0  0  0  0  0  0  0  0  0
  120.4034  121.0065   84.0705 H   0  0  0  0  0  0  0  0  0  0  0  0
  118.6624  121.3509   84.4901 H   0  0  0  0  0  0  0  0  0  0  0  0
  118.2215  120.5505   82.4457 H   0  0  0  0  0  0  0  0  0  0  0  0
  118.7817  122.1607   81.8801 H   0  0  0  0  0  0  0  0  0  0  0  0
  119.9128  120.7652   81.8801 H   0  0  0  0  0  0  0  0  0  0  0  0
  119.8212  122.5793   88.1762 H   0  0  0  0  0  0  0  0  0  0  0  0
  121.6886  121.5587   89.4838 H   0  0  0  0  0  0  0  0  0  0  0  0
  124.2515  121.2976   90.5944 H   0  0  0  0  0  0  0  0  0  0  0  0
  125.7532  121.8882   89.8052 H   0  0  0  0  0  0  0  0  0  0  0  0
  124.2766  122.9111   89.8052 H   0  0  0  0  0  0  0  0  0  0  0  0
  125.4461  122.4749   86.7212 H   0  0  0  0  0  0  0  0  0  0  0  0
  122.5216  123.3205   84.8753 H   0  0  0  0  0  0  0  0  0  0  0  0
  1  2  1  0
  2  3  1  0
  3  4  1  0
  4  5  1  0
  3  6  1  0
  6  7  2  0
  6  8  2  0
  6  9  1  0
  9 10  2  0
 10 11  1  0
 11 12  2  0
 12 13  1  0
 13 14  1  0
 12 15  1  0
 15 16  1  0
 16 17  1  0
 17 18  2  0
 17 19  1  0
 19 20  1  0
 19 21  1  0
 19 22  1  0
 15 23  2  0
 23  9  1  0
  1 24  1  0
  1 25  1  0
  1 26  1  0
  2 27  1  0
  2 28  1  0
  4 29  1  0
  4 30  1  0
  5 31  1  0
  5 32  1  0
  5 33  1  0
 10 34  1  0
 11 35  1  0
 14 36  1  0
 14 37  1  0
 14 38  1  0
 16 39  1  0
 23 40  1  0
M  END
>  <loss>  (11) 
0.48945382237434387

>  <score>  (11) 
4.1512250900268555

$$$$
KCUIBCLVAOOEPR-UHFFFAOYSA-N
     RDKit          3D

 40 40  0  0  0  0  0  0  0  0999 V2000
  118.5907  121.1005   83.0984 C   0  0  0  0  0  0  0  0  0  0  0  0
  119.7598  121.5442   83.9608 C   0  0  0  0  0  0  0  0  0  0  0  0
  119.8142  123.0262   83.9960 N   0  0  0  0  0  0  0  0  0  0  0  0
  120.7329  123.6433   83.0066 C   0  0  0  0  0  0  0  0  0  0  0  0
  119.9679  124.0611   81.7606 C   0  0  0  0  0  0  0  0  0  0  0  0
  119.7148  123.7604   85.5315 S   0  0  0  0  0  6  0  0  0  0  0  0
  120.0252  125.1676   85.4027 O   0  0  0  0  0  0  0  0  0  0  0  0
  118.4797  123.3252   86.1515 O   0  0  0  0  0  0  0  0  0  0  0  0
  121.0532  123.0055   86.4383 C   0  0  0  0  0  0  0  0  0  0  0  0
  120.8284  122.5092   87.7247 C   0  0  0  0  0  0  0  0  0  0  0  0
  121.8862  121.9551   88.4490 C   0  0  0  0  0  0  0  0  0  0  0  0
  123.1644  121.8952   87.8861 C   0  0  0  0  0  0  0  0  0  0  0  0
  124.2745  121.3661   88.5038 O   0  0  0  0  0  0  0  0  0  0  0  0
  124.5507  121.8087   89.8283 C   0  0  0  0  0  0  0  0  0  0  0  0
  123.3845  122.3951   86.5827 C   0  0  0  0  0  0  0  0  0  0  0  0
  124.6981  122.2866   86.0753 N   0  0  0  0  0  0  0  0  0  0  0  0
  125.1161  121.7168   84.8726 C   0  0  0  0  0  0  0  0  0  0  0  0
  124.5172  120.7926   84.3195 O   0  0  0  0  0  0  0  0  0  0  0  0
  126.4091  122.3508   84.2940 C   0  0  0  0  0  0  0  0  0  0  0  0
  125.9834  123.2250   82.7965 Cl  0  0  0  0  0  0  0  0  0  0  0  0
  127.6337  121.1099   83.9416 Cl  0  0  0  0  0  0  0  0  0  0  0  0
  127.0685  123.5081   85.4905 Cl  0  0  0  0  0  0  0  0  0  0  0  0
  122.3317  122.9740   85.8745 C   0  0  0  0  0  0  0  0  0  0  0  0
  117.7580  120.7846   83.7439 H   0  0  0  0  0  0  0  0  0  0  0  0
  118.2651  121.9376   82.4633 H   0  0  0  0  0  0  0  0  0  0  0  0
  118.9024  120.2582   82.4633 H   0  0  0  0  0  0  0  0  0  0  0  0
  119.6293  121.1577   84.9824 H   0  0  0  0  0  0  0  0  0  0  0  0
  120.6968  121.1530   83.5376 H   0  0  0  0  0  0  0  0  0  0  0  0
  121.2064  124.5291   83.4551 H   0  0  0  0  0  0  0  0  0  0  0  0
  121.4996  122.9068   82.7242 H   0  0  0  0  0  0  0  0  0  0  0  0
  119.0376  124.5691   82.0546 H   0  0  0  0  0  0  0  0  0  0  0  0
  120.5869  124.7464   81.1629 H   0  0  0  0  0  0  0  0  0  0  0  0
  119.7259  123.1699   81.1629 H   0  0  0  0  0  0  0  0  0  0  0  0
  119.8217  122.5546   88.1657 H   0  0  0  0  0  0  0  0  0  0  0  0
  121.7135  121.5656   89.4632 H   0  0  0  0  0  0  0  0  0  0  0  0
  124.1110  121.1041   90.5495 H   0  0  0  0  0  0  0  0  0  0  0  0
  125.6392  121.8566   89.9794 H   0  0  0  0  0  0  0  0  0  0  0  0
  124.1152  122.8075   89.9794 H   0  0  0  0  0  0  0  0  0  0  0  0
  125.4427  122.6783   86.6694 H   0  0  0  0  0  0  0  0  0  0  0  0
  122.5067  123.4038   84.8772 H   0  0  0  0  0  0  0  0  0  0  0  0
  1  2  1  0
  2  3  1  0
  3  4  1  0
  4  5  1  0
  3  6  1  0
  6  7  2  0
  6  8  2  0
  6  9  1  0
  9 10  2  0
 10 11  1  0
 11 12  2  0
 12 13  1  0
 13 14  1  0
 12 15  1  0
 15 16  1  0
 16 17  1  0
 17 18  2  0
 17 19  1  0
 19 20  1  0
 19 21  1  0
 19 22  1  0
 15 23  2  0
 23  9  1  0
  1 24  1  0
  1 25  1  0
  1 26  1  0
  2 27  1  0
  2 28  1  0
  4 29  1  0
  4 30  1  0
  5 31  1  0
  5 32  1  0
  5 33  1  0
 10 34  1  0
 11 35  1  0
 14 36  1  0
 14 37  1  0
 14 38  1  0
 16 39  1  0
 23 40  1  0
M  END
>  <loss>  (12) 
0.5022643804550171

>  <score>  (12) 
4.206410884857178

$$$$
KCUIBCLVAOOEPR-UHFFFAOYSA-N
     RDKit          3D

 40 40  0  0  0  0  0  0  0  0999 V2000
  120.6632  125.9508   82.7413 C   0  0  0  0  0  0  0  0  0  0  0  0
  120.8202  125.0801   83.9741 C   0  0  0  0  0  0  0  0  0  0  0  0
  120.3703  123.6915   83.7626 N   0  0  0  0  0  0  0  0  0  0  0  0
  120.8902  122.9966   82.5691 C   0  0  0  0  0  0  0  0  0  0  0  0
  119.8046  122.1081   81.9844 C   0  0  0  0  0  0  0  0  0  0  0  0
  119.6913  122.8039   85.0266 S   0  0  0  0  0  6  0  0  0  0  0  0
  118.7119  123.6477   85.6811 O   0  0  0  0  0  0  0  0  0  0  0  0
  119.3319  121.4901   84.5379 O   0  0  0  0  0  0  0  0  0  0  0  0
  121.0320  122.5735   86.1780 C   0  0  0  0  0  0  0  0  0  0  0  0
  120.7560  122.3955   87.5366 C   0  0  0  0  0  0  0  0  0  0  0  0
  121.8030  122.1871   88.4372 C   0  0  0  0  0  0  0  0  0  0  0  0
  123.1235  122.1585   87.9801 C   0  0  0  0  0  0  0  0  0  0  0  0
  124.2301  121.9685   88.7759 O   0  0  0  0  0  0  0  0  0  0  0  0
  124.0193  121.3469   90.0390 C   0  0  0  0  0  0  0  0  0  0  0  0
  123.3971  122.3389   86.6054 C   0  0  0  0  0  0  0  0  0  0  0  0
  124.7559  122.3067   86.2209 N   0  0  0  0  0  0  0  0  0  0  0  0
  125.3315  121.6728   85.1196 C   0  0  0  0  0  0  0  0  0  0  0  0
  124.7154  120.8962   84.3873 O   0  0  0  0  0  0  0  0  0  0  0  0
  126.8244  122.0347   84.8982 C   0  0  0  0  0  0  0  0  0  0  0  0
  127.1809  123.5276   85.8111 Cl  0  0  0  0  0  0  0  0  0  0  0  0
  127.0945  122.3270   83.1528 Cl  0  0  0  0  0  0  0  0  0  0  0  0
  127.8938  120.7230   85.4460 Cl  0  0  0  0  0  0  0  0  0  0  0  0
  122.3462  122.5212   85.7067 C   0  0  0  0  0  0  0  0  0  0  0  0
  120.4758  126.9904   83.0481 H   0  0  0  0  0  0  0  0  0  0  0  0
  121.5839  125.9060   82.1410 H   0  0  0  0  0  0  0  0  0  0  0  0
  119.8161  125.5873   82.1410 H   0  0  0  0  0  0  0  0  0  0  0  0
  121.8826  125.0644   84.2587 H   0  0  0  0  0  0  0  0  0  0  0  0
  120.1887  125.5129   84.7640 H   0  0  0  0  0  0  0  0  0  0  0  0
  121.1994  123.7391   81.8187 H   0  0  0  0  0  0  0  0  0  0  0  0
  121.7548  122.3788   82.8533 H   0  0  0  0  0  0  0  0  0  0  0  0
  119.2340  121.6410   82.8006 H   0  0  0  0  0  0  0  0  0  0  0  0
  119.1282  122.7150   81.3647 H   0  0  0  0  0  0  0  0  0  0  0  0
  120.2660  121.3250   81.3647 H   0  0  0  0  0  0  0  0  0  0  0  0
  119.7166  122.4194   87.8957 H   0  0  0  0  0  0  0  0  0  0  0  0
  121.5883  122.0454   89.5067 H   0  0  0  0  0  0  0  0  0  0  0  0
  124.2606  122.0583   90.8426 H   0  0  0  0  0  0  0  0  0  0  0  0
  122.9666  121.0396   90.1253 H   0  0  0  0  0  0  0  0  0  0  0  0
  124.6677  120.4626   90.1253 H   0  0  0  0  0  0  0  0  0  0  0  0
  125.4068  122.8182   86.8337 H   0  0  0  0  0  0  0  0  0  0  0  0
  122.5514  122.6235   84.6308 H   0  0  0  0  0  0  0  0  0  0  0  0
  1  2  1  0
  2  3  1  0
  3  4  1  0
  4  5  1  0
  3  6  1  0
  6  7  2  0
  6  8  2  0
  6  9  1  0
  9 10  2  0
 10 11  1  0
 11 12  2  0
 12 13  1  0
 13 14  1  0
 12 15  1  0
 15 16  1  0
 16 17  1  0
 17 18  2  0
 17 19  1  0
 19 20  1  0
 19 21  1  0
 19 22  1  0
 15 23  2  0
 23  9  1  0
  1 24  1  0
  1 25  1  0
  1 26  1  0
  2 27  1  0
  2 28  1  0
  4 29  1  0
  4 30  1  0
  5 31  1  0
  5 32  1  0
  5 33  1  0
 10 34  1  0
 11 35  1  0
 14 36  1  0
 14 37  1  0
 14 38  1  0
 16 39  1  0
 23 40  1  0
M  END
>  <loss>  (13) 
0.5060795545578003

>  <score>  (13) 
4.225020885467529

$$$$
KCUIBCLVAOOEPR-UHFFFAOYSA-N
     RDKit          3D

 40 40  0  0  0  0  0  0  0  0999 V2000
  119.5829  124.1984   81.9349 C   0  0  0  0  0  0  0  0  0  0  0  0
  120.5599  123.6567   82.9654 C   0  0  0  0  0  0  0  0  0  0  0  0
  119.8145  122.9891   84.0499 N   0  0  0  0  0  0  0  0  0  0  0  0
  119.5080  121.5583   83.8654 C   0  0  0  0  0  0  0  0  0  0  0  0
  119.1698  121.2026   82.4294 C   0  0  0  0  0  0  0  0  0  0  0  0
  119.7370  123.6964   85.5798 S   0  0  0  0  0  6  0  0  0  0  0  0
  120.0383  125.1068   85.4610 O   0  0  0  0  0  0  0  0  0  0  0  0
  118.5121  123.2480   86.2109 O   0  0  0  0  0  0  0  0  0  0  0  0
  121.0865  122.9578   86.4796 C   0  0  0  0  0  0  0  0  0  0  0  0
  120.8748  122.4763   87.7745 C   0  0  0  0  0  0  0  0  0  0  0  0
  121.9371  121.9221   88.4924 C   0  0  0  0  0  0  0  0  0  0  0  0
  123.2080  121.8482   87.9156 C   0  0  0  0  0  0  0  0  0  0  0  0
  124.3218  121.3177   88.5255 O   0  0  0  0  0  0  0  0  0  0  0  0
  124.7260  121.9053   89.7575 C   0  0  0  0  0  0  0  0  0  0  0  0
  123.4167  122.3367   86.6060 C   0  0  0  0  0  0  0  0  0  0  0  0
  124.7253  122.2189   86.0875 N   0  0  0  0  0  0  0  0  0  0  0  0
  125.1261  121.7193   84.8482 C   0  0  0  0  0  0  0  0  0  0  0  0
  124.5660  120.7770   84.2851 O   0  0  0  0  0  0  0  0  0  0  0  0
  126.3463  122.4603   84.2392 C   0  0  0  0  0  0  0  0  0  0  0  0
  127.4527  121.3252   83.4320 Cl  0  0  0  0  0  0  0  0  0  0  0  0
  125.7435  123.6593   83.0610 Cl  0  0  0  0  0  0  0  0  0  0  0  0
  127.2218  123.3058   85.5520 Cl  0  0  0  0  0  0  0  0  0  0  0  0
  122.3584  122.9123   85.9031 C   0  0  0  0  0  0  0  0  0  0  0  0
  118.7323  124.6701   82.4486 H   0  0  0  0  0  0  0  0  0  0  0  0
  120.0903  124.9441   81.3052 H   0  0  0  0  0  0  0  0  0  0  0  0
  119.2192  123.3731   81.3052 H   0  0  0  0  0  0  0  0  0  0  0  0
  121.2347  122.9328   82.4853 H   0  0  0  0  0  0  0  0  0  0  0  0
  121.1484  124.4869   83.3833 H   0  0  0  0  0  0  0  0  0  0  0  0
  120.3843  120.9698   84.1748 H   0  0  0  0  0  0  0  0  0  0  0  0
  118.6225  121.3309   84.4770 H   0  0  0  0  0  0  0  0  0  0  0  0
  118.4119  120.4054   82.4179 H   0  0  0  0  0  0  0  0  0  0  0  0
  118.7753  122.0911   81.9148 H   0  0  0  0  0  0  0  0  0  0  0  0
  120.0771  120.8533   81.9148 H   0  0  0  0  0  0  0  0  0  0  0  0
  119.8740  122.5336   88.2273 H   0  0  0  0  0  0  0  0  0  0  0  0
  121.7733  121.5437   89.5122 H   0  0  0  0  0  0  0  0  0  0  0  0
  124.3214  121.3172   90.5944 H   0  0  0  0  0  0  0  0  0  0  0  0
  125.8244  121.9173   89.8150 H   0  0  0  0  0  0  0  0  0  0  0  0
  124.3446  122.9354   89.8150 H   0  0  0  0  0  0  0  0  0  0  0  0
  125.4825  122.5445   86.7051 H   0  0  0  0  0  0  0  0  0  0  0  0
  122.5245  123.3288   84.8986 H   0  0  0  0  0  0  0  0  0  0  0  0
  1  2  1  0
  2  3  1  0
  3  4  1  0
  4  5  1  0
  3  6  1  0
  6  7  2  0
  6  8  2  0
  6  9  1  0
  9 10  2  0
 10 11  1  0
 11 12  2  0
 12 13  1  0
 13 14  1  0
 12 15  1  0
 15 16  1  0
 16 17  1  0
 17 18  2  0
 17 19  1  0
 19 20  1  0
 19 21  1  0
 19 22  1  0
 15 23  2  0
 23  9  1  0
  1 24  1  0
  1 25  1  0
  1 26  1  0
  2 27  1  0
  2 28  1  0
  4 29  1  0
  4 30  1  0
  5 31  1  0
  5 32  1  0
  5 33  1  0
 10 34  1  0
 11 35  1  0
 14 36  1  0
 14 37  1  0
 14 38  1  0
 16 39  1  0
 23 40  1  0
M  END
>  <loss>  (14) 
0.49136248230934143

>  <score>  (14) 
4.131815433502197

$$$$
KCUIBCLVAOOEPR-UHFFFAOYSA-N
     RDKit          3D

 40 40  0  0  0  0  0  0  0  0999 V2000
  120.6999  126.0781   83.2817 C   0  0  0  0  0  0  0  0  0  0  0  0
  120.7079  125.1075   84.4520 C   0  0  0  0  0  0  0  0  0  0  0  0
  120.2051  123.7811   84.0334 N   0  0  0  0  0  0  0  0  0  0  0  0
  120.7515  123.1929   82.7834 C   0  0  0  0  0  0  0  0  0  0  0  0
  119.6931  122.8047   81.7648 C   0  0  0  0  0  0  0  0  0  0  0  0
  119.6384  122.7278   85.2404 S   0  0  0  0  0  6  0  0  0  0  0  0
  119.3541  121.4388   84.6477 O   0  0  0  0  0  0  0  0  0  0  0  0
  118.6289  123.4228   86.0131 O   0  0  0  0  0  0  0  0  0  0  0  0
  121.0588  122.5293   86.2967 C   0  0  0  0  0  0  0  0  0  0  0  0
  120.8814  122.3879   87.6751 C   0  0  0  0  0  0  0  0  0  0  0  0
  121.9903  122.1841   88.4986 C   0  0  0  0  0  0  0  0  0  0  0  0
  123.2724  122.1252   87.9440 C   0  0  0  0  0  0  0  0  0  0  0  0
  124.4330  121.9362   88.6592 O   0  0  0  0  0  0  0  0  0  0  0  0
  124.3057  121.3854   89.9657 C   0  0  0  0  0  0  0  0  0  0  0  0
  123.4453  122.2741   86.5488 C   0  0  0  0  0  0  0  0  0  0  0  0
  124.7718  122.2218   86.0670 N   0  0  0  0  0  0  0  0  0  0  0  0
  125.2413  121.6547   84.8823 C   0  0  0  0  0  0  0  0  0  0  0  0
  124.5835  120.8637   84.2044 O   0  0  0  0  0  0  0  0  0  0  0  0
  126.6712  122.1138   84.4915 C   0  0  0  0  0  0  0  0  0  0  0  0
  127.8453  121.1663   85.4468 Cl  0  0  0  0  0  0  0  0  0  0  0  0
  126.9740  121.8758   82.7551 Cl  0  0  0  0  0  0  0  0  0  0  0  0
  126.8475  123.8508   84.8886 Cl  0  0  0  0  0  0  0  0  0  0  0  0
  122.3325  122.4483   85.7265 C   0  0  0  0  0  0  0  0  0  0  0  0
  120.6914  127.1104   83.6615 H   0  0  0  0  0  0  0  0  0  0  0  0
  121.5994  125.9204   82.6684 H   0  0  0  0  0  0  0  0  0  0  0  0
  119.8031  125.9056   82.6684 H   0  0  0  0  0  0  0  0  0  0  0  0
  121.7367  125.0021   84.8268 H   0  0  0  0  0  0  0  0  0  0  0  0
  120.0525  125.5012   85.2428 H   0  0  0  0  0  0  0  0  0  0  0  0
  121.4230  123.9305   82.3195 H   0  0  0  0  0  0  0  0  0  0  0  0
  121.2704  122.2662   83.0698 H   0  0  0  0  0  0  0  0  0  0  0  0
  118.7849  122.4717   82.2885 H   0  0  0  0  0  0  0  0  0  0  0  0
  119.4548  123.6740   81.1342 H   0  0  0  0  0  0  0  0  0  0  0  0
  120.0733  121.9875   81.1342 H   0  0  0  0  0  0  0  0  0  0  0  0
  119.8721  122.4370   88.1099 H   0  0  0  0  0  0  0  0  0  0  0  0
  121.8553  122.0699   89.5843 H   0  0  0  0  0  0  0  0  0  0  0  0
  124.4872  122.1709   90.7140 H   0  0  0  0  0  0  0  0  0  0  0  0
  123.2907  120.9820   90.0962 H   0  0  0  0  0  0  0  0  0  0  0  0
  125.0409  120.5777   90.0962 H   0  0  0  0  0  0  0  0  0  0  0  0
  125.4847  122.6590   86.6682 H   0  0  0  0  0  0  0  0  0  0  0  0
  122.4563  122.5216   84.6359 H   0  0  0  0  0  0  0  0  0  0  0  0
  1  2  1  0
  2  3  1  0
  3  4  1  0
  4  5  1  0
  3  6  1  0
  6  7  2  0
  6  8  2  0
  6  9  1  0
  9 10  2  0
 10 11  1  0
 11 12  2  0
 12 13  1  0
 13 14  1  0
 12 15  1  0
 15 16  1  0
 16 17  1  0
 17 18  2  0
 17 19  1  0
 19 20  1  0
 19 21  1  0
 19 22  1  0
 15 23  2  0
 23  9  1  0
  1 24  1  0
  1 25  1  0
  1 26  1  0
  2 27  1  0
  2 28  1  0
  4 29  1  0
  4 30  1  0
  5 31  1  0
  5 32  1  0
  5 33  1  0
 10 34  1  0
 11 35  1  0
 14 36  1  0
 14 37  1  0
 14 38  1  0
 16 39  1  0
 23 40  1  0
M  END
>  <loss>  (15) 
0.5104949474334717

>  <score>  (15) 
4.1770339012146

$$$$
KCUIBCLVAOOEPR-UHFFFAOYSA-N
     RDKit          3D

 40 40  0  0  0  0  0  0  0  0999 V2000
  119.8214  124.6597   82.2713 C   0  0  0  0  0  0  0  0  0  0  0  0
  120.4166  123.3511   82.7644 C   0  0  0  0  0  0  0  0  0  0  0  0
  119.6991  122.9072   83.9751 N   0  0  0  0  0  0  0  0  0  0  0  0
  119.2690  121.4970   84.0155 C   0  0  0  0  0  0  0  0  0  0  0  0
  118.4263  121.0974   82.8184 C   0  0  0  0  0  0  0  0  0  0  0  0
  119.7851  123.8225   85.3898 S   0  0  0  0  0  6  0  0  0  0  0  0
  120.2427  125.1551   85.0599 O   0  0  0  0  0  0  0  0  0  0  0  0
  118.5509  123.6196   86.1214 O   0  0  0  0  0  0  0  0  0  0  0  0
  121.0842  123.0544   86.3377 C   0  0  0  0  0  0  0  0  0  0  0  0
  120.8387  122.6565   87.6549 C   0  0  0  0  0  0  0  0  0  0  0  0
  121.8628  122.0795   88.4092 C   0  0  0  0  0  0  0  0  0  0  0  0
  123.1295  121.8991   87.8465 C   0  0  0  0  0  0  0  0  0  0  0  0
  124.2069  121.3368   88.4921 O   0  0  0  0  0  0  0  0  0  0  0  0
  124.3326  121.5955   89.8862 C   0  0  0  0  0  0  0  0  0  0  0  0
  123.3725  122.3033   86.5143 C   0  0  0  0  0  0  0  0  0  0  0  0
  124.6738  122.0800   86.0124 N   0  0  0  0  0  0  0  0  0  0  0  0
  125.0562  121.7263   84.7183 C   0  0  0  0  0  0  0  0  0  0  0  0
  124.4070  120.9572   84.0072 O   0  0  0  0  0  0  0  0  0  0  0  0
  126.3787  122.3915   84.2522 C   0  0  0  0  0  0  0  0  0  0  0  0
  126.2059  123.1033   82.6311 Cl  0  0  0  0  0  0  0  0  0  0  0  0
  126.8119  123.6632   85.4287 Cl  0  0  0  0  0  0  0  0  0  0  0  0
  127.6680  121.1500   84.2177 Cl  0  0  0  0  0  0  0  0  0  0  0  0
  122.3535  122.9022   85.7739 C   0  0  0  0  0  0  0  0  0  0  0  0
  119.5385  125.2818   83.1333 H   0  0  0  0  0  0  0  0  0  0  0  0
  120.5651  125.1941   81.6618 H   0  0  0  0  0  0  0  0  0  0  0  0
  118.9299  124.4505   81.6618 H   0  0  0  0  0  0  0  0  0  0  0  0
  120.3196  122.5861   81.9800 H   0  0  0  0  0  0  0  0  0  0  0  0
  121.4799  123.5001   83.0035 H   0  0  0  0  0  0  0  0  0  0  0  0
  120.1643  120.8585   84.0422 H   0  0  0  0  0  0  0  0  0  0  0  0
  118.6456  121.3697   84.9128 H   0  0  0  0  0  0  0  0  0  0  0  0
  117.4835  120.6502   83.1666 H   0  0  0  0  0  0  0  0  0  0  0  0
  118.2074  121.9876   82.2105 H   0  0  0  0  0  0  0  0  0  0  0  0
  118.9771  120.3646   82.2105 H   0  0  0  0  0  0  0  0  0  0  0  0
  119.8412  122.7976   88.0966 H   0  0  0  0  0  0  0  0  0  0  0  0
  121.6725  121.7668   89.4465 H   0  0  0  0  0  0  0  0  0  0  0  0
  123.9212  120.7484   90.4548 H   0  0  0  0  0  0  0  0  0  0  0  0
  125.3947  121.7265   90.1406 H   0  0  0  0  0  0  0  0  0  0  0  0
  123.7789  122.5113   90.1406 H   0  0  0  0  0  0  0  0  0  0  0  0
  125.4407  122.1932   86.6907 H   0  0  0  0  0  0  0  0  0  0  0  0
  122.5484  123.2535   84.7498 H   0  0  0  0  0  0  0  0  0  0  0  0
  1  2  1  0
  2  3  1  0
  3  4  1  0
  4  5  1  0
  3  6  1  0
  6  7  2  0
  6  8  2  0
  6  9  1  0
  9 10  2  0
 10 11  1  0
 11 12  2  0
 12 13  1  0
 13 14  1  0
 12 15  1  0
 15 16  1  0
 16 17  1  0
 17 18  2  0
 17 19  1  0
 19 20  1  0
 19 21  1  0
 19 22  1  0
 15 23  2  0
 23  9  1  0
  1 24  1  0
  1 25  1  0
  1 26  1  0
  2 27  1  0
  2 28  1  0
  4 29  1  0
  4 30  1  0
  5 31  1  0
  5 32  1  0
  5 33  1  0
 10 34  1  0
 11 35  1  0
 14 36  1  0
 14 37  1  0
 14 38  1  0
 16 39  1  0
 23 40  1  0
M  END
>  <loss>  (16) 
0.5021559000015259

>  <score>  (16) 
4.133059024810791

$$$$
KCUIBCLVAOOEPR-UHFFFAOYSA-N
     RDKit          3D

 40 40  0  0  0  0  0  0  0  0999 V2000
  118.5148  121.1094   83.1134 C   0  0  0  0  0  0  0  0  0  0  0  0
  119.7050  121.5671   83.9388 C   0  0  0  0  0  0  0  0  0  0  0  0
  119.7581  123.0495   83.9506 N   0  0  0  0  0  0  0  0  0  0  0  0
  120.6516  123.6526   82.9299 C   0  0  0  0  0  0  0  0  0  0  0  0
  119.8338  124.2558   81.7986 C   0  0  0  0  0  0  0  0  0  0  0  0
  119.6952  123.8065   85.4768 S   0  0  0  0  0  6  0  0  0  0  0  0
  120.0397  125.2034   85.3254 O   0  0  0  0  0  0  0  0  0  0  0  0
  118.4568  123.4113   86.1167 O   0  0  0  0  0  0  0  0  0  0  0  0
  121.0244  123.0299   86.3788 C   0  0  0  0  0  0  0  0  0  0  0  0
  120.7884  122.5091   87.6535 C   0  0  0  0  0  0  0  0  0  0  0  0
  121.8391  121.9378   88.3748 C   0  0  0  0  0  0  0  0  0  0  0  0
  123.1214  121.8850   87.8205 C   0  0  0  0  0  0  0  0  0  0  0  0
  124.2252  121.3406   88.4361 O   0  0  0  0  0  0  0  0  0  0  0  0
  124.5968  121.8850   89.6978 C   0  0  0  0  0  0  0  0  0  0  0  0
  123.3528  122.4097   86.5288 C   0  0  0  0  0  0  0  0  0  0  0  0
  124.6699  122.3072   86.0295 N   0  0  0  0  0  0  0  0  0  0  0  0
  125.1008  121.7153   84.8420 C   0  0  0  0  0  0  0  0  0  0  0  0
  124.4765  120.8208   84.2686 O   0  0  0  0  0  0  0  0  0  0  0  0
  126.4428  122.2838   84.3086 C   0  0  0  0  0  0  0  0  0  0  0  0
  126.8936  123.6908   85.3112 Cl  0  0  0  0  0  0  0  0  0  0  0  0
  126.3028  122.7760   82.6052 Cl  0  0  0  0  0  0  0  0  0  0  0  0
  127.7030  121.0206   84.4566 Cl  0  0  0  0  0  0  0  0  0  0  0  0
  122.3071  123.0056   85.8242 C   0  0  0  0  0  0  0  0  0  0  0  0
  117.7015  120.7966   83.7847 H   0  0  0  0  0  0  0  0  0  0  0  0
  118.1682  121.9383   82.4788 H   0  0  0  0  0  0  0  0  0  0  0  0
  118.8129  120.2617   82.4788 H   0  0  0  0  0  0  0  0  0  0  0  0
  119.6012  121.1957   84.9691 H   0  0  0  0  0  0  0  0  0  0  0  0
  120.6314  121.1705   83.4977 H   0  0  0  0  0  0  0  0  0  0  0  0
  121.2575  124.4415   83.3995 H   0  0  0  0  0  0  0  0  0  0  0  0
  121.3044  122.8683   82.5192 H   0  0  0  0  0  0  0  0  0  0  0  0
  119.0157  124.8591   82.2189 H   0  0  0  0  0  0  0  0  0  0  0  0
  120.4802  124.8950   81.1793 H   0  0  0  0  0  0  0  0  0  0  0  0
  119.4140  123.4494   81.1793 H   0  0  0  0  0  0  0  0  0  0  0  0
  119.7785  122.5490   88.0876 H   0  0  0  0  0  0  0  0  0  0  0  0
  121.6574  121.5290   89.3798 H   0  0  0  0  0  0  0  0  0  0  0  0
  124.1742  121.2660   90.5030 H   0  0  0  0  0  0  0  0  0  0  0  0
  125.6934  121.8984   89.7828 H   0  0  0  0  0  0  0  0  0  0  0  0
  124.2098  122.9112   89.7828 H   0  0  0  0  0  0  0  0  0  0  0  0
  125.4067  122.7227   86.6173 H   0  0  0  0  0  0  0  0  0  0  0  0
  122.4910  123.4543   84.8369 H   0  0  0  0  0  0  0  0  0  0  0  0
  1  2  1  0
  2  3  1  0
  3  4  1  0
  4  5  1  0
  3  6  1  0
  6  7  2  0
  6  8  2  0
  6  9  1  0
  9 10  2  0
 10 11  1  0
 11 12  2  0
 12 13  1  0
 13 14  1  0
 12 15  1  0
 15 16  1  0
 16 17  1  0
 17 18  2  0
 17 19  1  0
 19 20  1  0
 19 21  1  0
 19 22  1  0
 15 23  2  0
 23  9  1  0
  1 24  1  0
  1 25  1  0
  1 26  1  0
  2 27  1  0
  2 28  1  0
  4 29  1  0
  4 30  1  0
  5 31  1  0
  5 32  1  0
  5 33  1  0
 10 34  1  0
 11 35  1  0
 14 36  1  0
 14 37  1  0
 14 38  1  0
 16 39  1  0
 23 40  1  0
M  END
>  <loss>  (17) 
0.5057460069656372

>  <score>  (17) 
4.1354756355285645

$$$$
KCUIBCLVAOOEPR-UHFFFAOYSA-N
     RDKit          3D

 40 40  0  0  0  0  0  0  0  0999 V2000
  118.5619  121.0196   83.1540 C   0  0  0  0  0  0  0  0  0  0  0  0
  119.4393  121.5136   84.2914 C   0  0  0  0  0  0  0  0  0  0  0  0
  119.7160  122.9597   84.1106 N   0  0  0  0  0  0  0  0  0  0  0  0
  120.6319  123.2870   82.9891 C   0  0  0  0  0  0  0  0  0  0  0  0
  119.8844  124.0307   81.8933 C   0  0  0  0  0  0  0  0  0  0  0  0
  119.8532  123.8968   85.5281 S   0  0  0  0  0  6  0  0  0  0  0  0
  120.3739  125.2016   85.1828 O   0  0  0  0  0  0  0  0  0  0  0  0
  118.6155  123.7626   86.2694 O   0  0  0  0  0  0  0  0  0  0  0  0
  121.1190  123.0532   86.4607 C   0  0  0  0  0  0  0  0  0  0  0  0
  120.8357  122.5743   87.7421 C   0  0  0  0  0  0  0  0  0  0  0  0
  121.8389  121.9501   88.4868 C   0  0  0  0  0  0  0  0  0  0  0  0
  123.1209  121.8029   87.9491 C   0  0  0  0  0  0  0  0  0  0  0  0
  124.1801  121.2001   88.5882 O   0  0  0  0  0  0  0  0  0  0  0  0
  124.7311  121.8807   89.7105 C   0  0  0  0  0  0  0  0  0  0  0  0
  123.4001  122.2858   86.6506 C   0  0  0  0  0  0  0  0  0  0  0  0
  124.7130  122.0879   86.1691 N   0  0  0  0  0  0  0  0  0  0  0  0
  125.1176  121.7314   84.8825 C   0  0  0  0  0  0  0  0  0  0  0  0
  124.5613  120.8547   84.2188 O   0  0  0  0  0  0  0  0  0  0  0  0
  126.3371  122.5381   84.3624 C   0  0  0  0  0  0  0  0  0  0  0  0
  127.0618  123.4105   85.7415 Cl  0  0  0  0  0  0  0  0  0  0  0  0
  125.8539  123.6961   83.1019 Cl  0  0  0  0  0  0  0  0  0  0  0  0
  127.5376  121.3952   83.6854 Cl  0  0  0  0  0  0  0  0  0  0  0  0
  122.4033  122.9345   85.9222 C   0  0  0  0  0  0  0  0  0  0  0  0
  117.6734  120.5195   83.5669 H   0  0  0  0  0  0  0  0  0  0  0  0
  118.2478  121.8735   82.5358 H   0  0  0  0  0  0  0  0  0  0  0  0
  119.1290  120.3082   82.5358 H   0  0  0  0  0  0  0  0  0  0  0  0
  118.9213  121.3563   85.2490 H   0  0  0  0  0  0  0  0  0  0  0  0
  120.3876  120.9561   84.2915 H   0  0  0  0  0  0  0  0  0  0  0  0
  121.4506  123.9196   83.3627 H   0  0  0  0  0  0  0  0  0  0  0  0
  121.0356  122.3519   82.5738 H   0  0  0  0  0  0  0  0  0  0  0  0
  119.1744  124.7371   82.3482 H   0  0  0  0  0  0  0  0  0  0  0  0
  120.6026  124.5832   81.2695 H   0  0  0  0  0  0  0  0  0  0  0  0
  119.3356  123.3098   81.2695 H   0  0  0  0  0  0  0  0  0  0  0  0
  119.8259  122.6884   88.1632 H   0  0  0  0  0  0  0  0  0  0  0  0
  121.6201  121.5740   89.4971 H   0  0  0  0  0  0  0  0  0  0  0  0
  124.3586  121.4205   90.6375 H   0  0  0  0  0  0  0  0  0  0  0  0
  125.8283  121.8086   89.6805 H   0  0  0  0  0  0  0  0  0  0  0  0
  124.4322  122.9389   89.6805 H   0  0  0  0  0  0  0  0  0  0  0  0
  125.4684  122.2242   86.8559 H   0  0  0  0  0  0  0  0  0  0  0  0
  122.6267  123.3507   84.9287 H   0  0  0  0  0  0  0  0  0  0  0  0
  1  2  1  0
  2  3  1  0
  3  4  1  0
  4  5  1  0
  3  6  1  0
  6  7  2  0
  6  8  2  0
  6  9  1  0
  9 10  2  0
 10 11  1  0
 11 12  2  0
 12 13  1  0
 13 14  1  0
 12 15  1  0
 15 16  1  0
 16 17  1  0
 17 18  2  0
 17 19  1  0
 19 20  1  0
 19 21  1  0
 19 22  1  0
 15 23  2  0
 23  9  1  0
  1 24  1  0
  1 25  1  0
  1 26  1  0
  2 27  1  0
  2 28  1  0
  4 29  1  0
  4 30  1  0
  5 31  1  0
  5 32  1  0
  5 33  1  0
 10 34  1  0
 11 35  1  0
 14 36  1  0
 14 37  1  0
 14 38  1  0
 16 39  1  0
 23 40  1  0
M  END
>  <loss>  (18) 
0.5030652284622192

>  <score>  (18) 
4.096368312835693

$$$$
KCUIBCLVAOOEPR-UHFFFAOYSA-N
     RDKit          3D

 40 40  0  0  0  0  0  0  0  0999 V2000
  120.2608  125.7044   82.6738 C   0  0  0  0  0  0  0  0  0  0  0  0
  120.7836  124.9067   83.8542 C   0  0  0  0  0  0  0  0  0  0  0  0
  120.1783  123.5659   83.9598 N   0  0  0  0  0  0  0  0  0  0  0  0
  120.4725  122.6139   82.8714 C   0  0  0  0  0  0  0  0  0  0  0  0
  119.2296  122.4149   82.0196 C   0  0  0  0  0  0  0  0  0  0  0  0
  119.5831  123.0031   85.4348 S   0  0  0  0  0  6  0  0  0  0  0  0
  118.8904  124.1013   86.0781 O   0  0  0  0  0  0  0  0  0  0  0  0
  118.9244  121.7324   85.2214 O   0  0  0  0  0  0  0  0  0  0  0  0
  121.0410  122.6686   86.4037 C   0  0  0  0  0  0  0  0  0  0  0  0
  120.9183  122.3961   87.7691 C   0  0  0  0  0  0  0  0  0  0  0  0
  122.0564  122.1063   88.5251 C   0  0  0  0  0  0  0  0  0  0  0  0
  123.3147  122.0910   87.9171 C   0  0  0  0  0  0  0  0  0  0  0  0
  124.5004  121.8263   88.5638 O   0  0  0  0  0  0  0  0  0  0  0  0
  124.4183  121.4312   89.9289 C   0  0  0  0  0  0  0  0  0  0  0  0
  123.4333  122.3670   86.5362 C   0  0  0  0  0  0  0  0  0  0  0  0
  124.7379  122.3422   85.9954 N   0  0  0  0  0  0  0  0  0  0  0  0
  125.1782  121.7359   84.8187 C   0  0  0  0  0  0  0  0  0  0  0  0
  124.6215  120.7611   84.3102 O   0  0  0  0  0  0  0  0  0  0  0  0
  126.4383  122.4022   84.2045 C   0  0  0  0  0  0  0  0  0  0  0  0
  127.1833  123.4455   85.4477 Cl  0  0  0  0  0  0  0  0  0  0  0  0
  125.9379  123.4057   82.8089 Cl  0  0  0  0  0  0  0  0  0  0  0  0
  127.6118  121.1818   83.6590 Cl  0  0  0  0  0  0  0  0  0  0  0  0
  122.2910  122.6307   85.7806 C   0  0  0  0  0  0  0  0  0  0  0  0
  119.6922  126.5718   83.0404 H   0  0  0  0  0  0  0  0  0  0  0  0
  121.1067  126.0521   82.0627 H   0  0  0  0  0  0  0  0  0  0  0  0
  119.6044  125.0674   82.0627 H   0  0  0  0  0  0  0  0  0  0  0  0
  121.8720  124.7919   83.7446 H   0  0  0  0  0  0  0  0  0  0  0  0
  120.5177  125.4596   84.7673 H   0  0  0  0  0  0  0  0  0  0  0  0
  121.2851  123.0122   82.2461 H   0  0  0  0  0  0  0  0  0  0  0  0
  120.7789  121.6492   83.3021 H   0  0  0  0  0  0  0  0  0  0  0  0
  118.3558  122.2750   82.6730 H   0  0  0  0  0  0  0  0  0  0  0  0
  119.0747  123.2997   81.3846 H   0  0  0  0  0  0  0  0  0  0  0  0
  119.3587  121.5260   81.3846 H   0  0  0  0  0  0  0  0  0  0  0  0
  119.9277  122.4097   88.2471 H   0  0  0  0  0  0  0  0  0  0  0  0
  121.9623  121.8902   89.5996 H   0  0  0  0  0  0  0  0  0  0  0  0
  124.5995  122.3033   90.5744 H   0  0  0  0  0  0  0  0  0  0  0  0
  123.4167  121.0252   90.1335 H   0  0  0  0  0  0  0  0  0  0  0  0
  125.1755  120.6599   90.1335 H   0  0  0  0  0  0  0  0  0  0  0  0
  125.4583  122.8362   86.5411 H   0  0  0  0  0  0  0  0  0  0  0  0
  122.3739  122.8082   84.6982 H   0  0  0  0  0  0  0  0  0  0  0  0
  1  2  1  0
  2  3  1  0
  3  4  1  0
  4  5  1  0
  3  6  1  0
  6  7  2  0
  6  8  2  0
  6  9  1  0
  9 10  2  0
 10 11  1  0
 11 12  2  0
 12 13  1  0
 13 14  1  0
 12 15  1  0
 15 16  1  0
 16 17  1  0
 17 18  2  0
 17 19  1  0
 19 20  1  0
 19 21  1  0
 19 22  1  0
 15 23  2  0
 23  9  1  0
  1 24  1  0
  1 25  1  0
  1 26  1  0
  2 27  1  0
  2 28  1  0
  4 29  1  0
  4 30  1  0
  5 31  1  0
  5 32  1  0
  5 33  1  0
 10 34  1  0
 11 35  1  0
 14 36  1  0
 14 37  1  0
 14 38  1  0
 16 39  1  0
 23 40  1  0
M  END
>  <loss>  (19) 
0.49017927050590515

>  <score>  (19) 
3.993774652481079

$$$$
KCUIBCLVAOOEPR-UHFFFAOYSA-N
     RDKit          3D

 40 40  0  0  0  0  0  0  0  0999 V2000
  118.6266  120.9862   82.9449 C   0  0  0  0  0  0  0  0  0  0  0  0
  119.4475  121.4512   84.1354 C   0  0  0  0  0  0  0  0  0  0  0  0
  119.6238  122.9226   84.0703 N   0  0  0  0  0  0  0  0  0  0  0  0
  120.5558  123.3960   83.0163 C   0  0  0  0  0  0  0  0  0  0  0  0
  119.8591  124.3884   82.0985 C   0  0  0  0  0  0  0  0  0  0  0  0
  119.6369  123.7594   85.5557 S   0  0  0  0  0  6  0  0  0  0  0  0
  119.9904  125.1415   85.3157 O   0  0  0  0  0  0  0  0  0  0  0  0
  118.4234  123.4154   86.2686 O   0  0  0  0  0  0  0  0  0  0  0  0
  120.9955  123.0127   86.4390 C   0  0  0  0  0  0  0  0  0  0  0  0
  120.7924  122.5007   87.7228 C   0  0  0  0  0  0  0  0  0  0  0  0
  121.8658  121.9531   88.4290 C   0  0  0  0  0  0  0  0  0  0  0  0
  123.1379  121.9153   87.8505 C   0  0  0  0  0  0  0  0  0  0  0  0
  124.2619  121.3945   88.4497 O   0  0  0  0  0  0  0  0  0  0  0  0
  124.4992  121.7569   89.8057 C   0  0  0  0  0  0  0  0  0  0  0  0
  123.3360  122.4312   86.5498 C   0  0  0  0  0  0  0  0  0  0  0  0
  124.6448  122.3448   86.0260 N   0  0  0  0  0  0  0  0  0  0  0  0
  125.0636  121.7397   84.8408 C   0  0  0  0  0  0  0  0  0  0  0  0
  124.5071  120.7544   84.3528 O   0  0  0  0  0  0  0  0  0  0  0  0
  126.2992  122.4189   84.1923 C   0  0  0  0  0  0  0  0  0  0  0  0
  127.3435  121.2245   83.3884 Cl  0  0  0  0  0  0  0  0  0  0  0  0
  127.2337  123.2553   85.4701 Cl  0  0  0  0  0  0  0  0  0  0  0  0
  125.7200  123.6169   83.0016 Cl  0  0  0  0  0  0  0  0  0  0  0  0
  122.2676  123.0035   85.8599 C   0  0  0  0  0  0  0  0  0  0  0  0
  117.7211  120.4735   83.3017 H   0  0  0  0  0  0  0  0  0  0  0  0
  118.3394  121.8558   82.3355 H   0  0  0  0  0  0  0  0  0  0  0  0
  119.2246  120.2928   82.3355 H   0  0  0  0  0  0  0  0  0  0  0  0
  118.9259  121.1853   85.0667 H   0  0  0  0  0  0  0  0  0  0  0  0
  120.4328  120.9626   84.1145 H   0  0  0  0  0  0  0  0  0  0  0  0
  121.4199  123.8853   83.4897 H   0  0  0  0  0  0  0  0  0  0  0  0
  120.8890  122.5331   82.4211 H   0  0  0  0  0  0  0  0  0  0  0  0
  119.3314  125.1399   82.7042 H   0  0  0  0  0  0  0  0  0  0  0  0
  120.6059  124.8876   81.4638 H   0  0  0  0  0  0  0  0  0  0  0  0
  119.1359  123.8554   81.4638 H   0  0  0  0  0  0  0  0  0  0  0  0
  119.7905  122.5287   88.1760 H   0  0  0  0  0  0  0  0  0  0  0  0
  121.7100  121.5512   89.4411 H   0  0  0  0  0  0  0  0  0  0  0  0
  124.0191  121.0238   90.4705 H   0  0  0  0  0  0  0  0  0  0  0  0
  125.5823  121.7714   89.9972 H   0  0  0  0  0  0  0  0  0  0  0  0
  124.0796  122.7555   89.9972 H   0  0  0  0  0  0  0  0  0  0  0  0
  125.3847  122.7848   86.5914 H   0  0  0  0  0  0  0  0  0  0  0  0
  122.4252  123.4455   84.8651 H   0  0  0  0  0  0  0  0  0  0  0  0
  1  2  1  0
  2  3  1  0
  3  4  1  0
  4  5  1  0
  3  6  1  0
  6  7  2  0
  6  8  2  0
  6  9  1  0
  9 10  2  0
 10 11  1  0
 11 12  2  0
 12 13  1  0
 13 14  1  0
 12 15  1  0
 15 16  1  0
 16 17  1  0
 17 18  2  0
 17 19  1  0
 19 20  1  0
 19 21  1  0
 19 22  1  0
 15 23  2  0
 23  9  1  0
  1 24  1  0
  1 25  1  0
  1 26  1  0
  2 27  1  0
  2 28  1  0
  4 29  1  0
  4 30  1  0
  5 31  1  0
  5 32  1  0
  5 33  1  0
 10 34  1  0
 11 35  1  0
 14 36  1  0
 14 37  1  0
 14 38  1  0
 16 39  1  0
 23 40  1  0
M  END
>  <loss>  (20) 
0.5200659036636353

>  <score>  (20) 
4.0734052658081055

$$$$
KCUIBCLVAOOEPR-UHFFFAOYSA-N
     RDKit          3D

 40 40  0  0  0  0  0  0  0  0999 V2000
  119.1269  120.6656   82.9320 C   0  0  0  0  0  0  0  0  0  0  0  0
  119.8557  121.3345   84.0848 C   0  0  0  0  0  0  0  0  0  0  0  0
  119.8991  122.8000   83.8588 N   0  0  0  0  0  0  0  0  0  0  0  0
  120.7278  123.2319   82.7053 C   0  0  0  0  0  0  0  0  0  0  0  0
  120.0805  124.4132   81.9997 C   0  0  0  0  0  0  0  0  0  0  0  0
  119.9195  123.7892   85.2472 S   0  0  0  0  0  6  0  0  0  0  0  0
  120.4485  125.0884   84.8933 O   0  0  0  0  0  0  0  0  0  0  0  0
  118.6321  123.6633   85.8998 O   0  0  0  0  0  0  0  0  0  0  0  0
  121.1229  122.9984   86.3007 C   0  0  0  0  0  0  0  0  0  0  0  0
  120.7512  122.5612   87.5744 C   0  0  0  0  0  0  0  0  0  0  0  0
  121.7039  121.9790   88.4134 C   0  0  0  0  0  0  0  0  0  0  0  0
  123.0241  121.8321   87.9775 C   0  0  0  0  0  0  0  0  0  0  0  0
  124.0402  121.2683   88.7146 O   0  0  0  0  0  0  0  0  0  0  0  0
  124.5474  122.0292   89.8055 C   0  0  0  0  0  0  0  0  0  0  0  0
  123.3929  122.2726   86.6863 C   0  0  0  0  0  0  0  0  0  0  0  0
  124.7403  122.0774   86.3106 N   0  0  0  0  0  0  0  0  0  0  0  0
  125.2419  121.6510   85.0806 C   0  0  0  0  0  0  0  0  0  0  0  0
  124.5965  120.9575   84.2925 O   0  0  0  0  0  0  0  0  0  0  0  0
  126.6912  122.1269   84.7952 C   0  0  0  0  0  0  0  0  0  0  0  0
  127.6648  120.8280   84.0682 Cl  0  0  0  0  0  0  0  0  0  0  0  0
  127.4444  122.6369   86.3374 Cl  0  0  0  0  0  0  0  0  0  0  0  0
  126.6146  123.5220   83.6835 Cl  0  0  0  0  0  0  0  0  0  0  0  0
  122.4450  122.8799   85.8631 C   0  0  0  0  0  0  0  0  0  0  0  0
  118.3712  119.9720   83.3292 H   0  0  0  0  0  0  0  0  0  0  0  0
  118.6336  121.4319   82.3161 H   0  0  0  0  0  0  0  0  0  0  0  0
  119.8482  120.1086   82.3161 H   0  0  0  0  0  0  0  0  0  0  0  0
  119.3254  121.1242   85.0253 H   0  0  0  0  0  0  0  0  0  0  0  0
  120.8817  120.9426   84.1467 H   0  0  0  0  0  0  0  0  0  0  0  0
  121.7245  123.5267   83.0653 H   0  0  0  0  0  0  0  0  0  0  0  0
  120.8140  122.3961   81.9953 H   0  0  0  0  0  0  0  0  0  0  0  0
  119.6931  125.1201   82.7482 H   0  0  0  0  0  0  0  0  0  0  0  0
  120.8276  124.9187   81.3702 H   0  0  0  0  0  0  0  0  0  0  0  0
  119.2523  124.0555   81.3702 H   0  0  0  0  0  0  0  0  0  0  0  0
  119.7116  122.6750   87.9154 H   0  0  0  0  0  0  0  0  0  0  0  0
  121.4154  121.6358   89.4179 H   0  0  0  0  0  0  0  0  0  0  0  0
  124.2372  121.5638   90.7527 H   0  0  0  0  0  0  0  0  0  0  0  0
  125.6458  122.0577   89.7534 H   0  0  0  0  0  0  0  0  0  0  0  0
  124.1512  123.0540   89.7534 H   0  0  0  0  0  0  0  0  0  0  0  0
  125.4424  122.2752   87.0377 H   0  0  0  0  0  0  0  0  0  0  0  0
  122.7364  123.2638   84.8743 H   0  0  0  0  0  0  0  0  0  0  0  0
  1  2  1  0
  2  3  1  0
  3  4  1  0
  4  5  1  0
  3  6  1  0
  6  7  2  0
  6  8  2  0
  6  9  1  0
  9 10  2  0
 10 11  1  0
 11 12  2  0
 12 13  1  0
 13 14  1  0
 12 15  1  0
 15 16  1  0
 16 17  1  0
 17 18  2  0
 17 19  1  0
 19 20  1  0
 19 21  1  0
 19 22  1  0
 15 23  2  0
 23  9  1  0
  1 24  1  0
  1 25  1  0
  1 26  1  0
  2 27  1  0
  2 28  1  0
  4 29  1  0
  4 30  1  0
  5 31  1  0
  5 32  1  0
  5 33  1  0
 10 34  1  0
 11 35  1  0
 14 36  1  0
 14 37  1  0
 14 38  1  0
 16 39  1  0
 23 40  1  0
M  END
>  <loss>  (21) 
0.5158204436302185

>  <score>  (21) 
4.035115718841553

$$$$
KCUIBCLVAOOEPR-UHFFFAOYSA-N
     RDKit          3D

 40 40  0  0  0  0  0  0  0  0999 V2000
  118.7128  120.7743   83.2932 C   0  0  0  0  0  0  0  0  0  0  0  0
  119.8954  121.4296   83.9857 C   0  0  0  0  0  0  0  0  0  0  0  0
  119.7252  122.9031   83.9670 N   0  0  0  0  0  0  0  0  0  0  0  0
  120.4568  123.6047   82.8826 C   0  0  0  0  0  0  0  0  0  0  0  0
  119.4931  124.0493   81.7936 C   0  0  0  0  0  0  0  0  0  0  0  0
  119.6376  123.6836   85.4802 S   0  0  0  0  0  6  0  0  0  0  0  0
  119.9308  125.0893   85.3038 O   0  0  0  0  0  0  0  0  0  0  0  0
  118.4156  123.2548   86.1298 O   0  0  0  0  0  0  0  0  0  0  0  0
  120.9959  122.9715   86.3921 C   0  0  0  0  0  0  0  0  0  0  0  0
  120.7883  122.4934   87.6882 C   0  0  0  0  0  0  0  0  0  0  0  0
  121.8610  121.9733   88.4158 C   0  0  0  0  0  0  0  0  0  0  0  0
  123.1370  121.9291   87.8465 C   0  0  0  0  0  0  0  0  0  0  0  0
  124.2609  121.4332   88.4667 O   0  0  0  0  0  0  0  0  0  0  0  0
  124.4666  121.8033   89.8258 C   0  0  0  0  0  0  0  0  0  0  0  0
  123.3398  122.4104   86.5333 C   0  0  0  0  0  0  0  0  0  0  0  0
  124.6524  122.3193   86.0202 N   0  0  0  0  0  0  0  0  0  0  0  0
  125.0722  121.7586   84.8137 C   0  0  0  0  0  0  0  0  0  0  0  0
  124.4746  120.8380   84.2534 O   0  0  0  0  0  0  0  0  0  0  0  0
  126.3653  122.3980   84.2412 C   0  0  0  0  0  0  0  0  0  0  0  0
  125.9101  123.4608   82.8805 Cl  0  0  0  0  0  0  0  0  0  0  0  0
  127.5058  121.1538   83.6804 Cl  0  0  0  0  0  0  0  0  0  0  0  0
  127.1417  123.3755   85.5246 Cl  0  0  0  0  0  0  0  0  0  0  0  0
  122.2716  122.9558   85.8214 C   0  0  0  0  0  0  0  0  0  0  0  0
  118.0138  120.3870   84.0492 H   0  0  0  0  0  0  0  0  0  0  0  0
  118.1987  121.5163   82.6646 H   0  0  0  0  0  0  0  0  0  0  0  0
  119.0694  119.9451   82.6646 H   0  0  0  0  0  0  0  0  0  0  0  0
  119.9502  121.0800   85.0272 H   0  0  0  0  0  0  0  0  0  0  0  0
  120.8232  121.1610   83.4594 H   0  0  0  0  0  0  0  0  0  0  0  0
  120.9642  124.4871   83.2998 H   0  0  0  0  0  0  0  0  0  0  0  0
  121.1946  122.9153   82.4461 H   0  0  0  0  0  0  0  0  0  0  0  0
  118.5863  124.4676   82.2548 H   0  0  0  0  0  0  0  0  0  0  0  0
  119.9741  124.8165   81.1691 H   0  0  0  0  0  0  0  0  0  0  0  0
  119.2217  123.1854   81.1691 H   0  0  0  0  0  0  0  0  0  0  0  0
  119.7833  122.5264   88.1343 H   0  0  0  0  0  0  0  0  0  0  0  0
  121.7017  121.5982   89.4376 H   0  0  0  0  0  0  0  0  0  0  0  0
  124.0386  121.0331   90.4843 H   0  0  0  0  0  0  0  0  0  0  0  0
  125.5451  121.8952   90.0216 H   0  0  0  0  0  0  0  0  0  0  0  0
  123.9749  122.7676   90.0216 H   0  0  0  0  0  0  0  0  0  0  0  0
  125.3948  122.7179   86.6126 H   0  0  0  0  0  0  0  0  0  0  0  0
  122.4324  123.3714   84.8157 H   0  0  0  0  0  0  0  0  0  0  0  0
  1  2  1  0
  2  3  1  0
  3  4  1  0
  4  5  1  0
  3  6  1  0
  6  7  2  0
  6  8  2  0
  6  9  1  0
  9 10  2  0
 10 11  1  0
 11 12  2  0
 12 13  1  0
 13 14  1  0
 12 15  1  0
 15 16  1  0
 16 17  1  0
 17 18  2  0
 17 19  1  0
 19 20  1  0
 19 21  1  0
 19 22  1  0
 15 23  2  0
 23  9  1  0
  1 24  1  0
  1 25  1  0
  1 26  1  0
  2 27  1  0
  2 28  1  0
  4 29  1  0
  4 30  1  0
  5 31  1  0
  5 32  1  0
  5 33  1  0
 10 34  1  0
 11 35  1  0
 14 36  1  0
 14 37  1  0
 14 38  1  0
 16 39  1  0
 23 40  1  0
M  END
>  <loss>  (22) 
0.5080314874649048

>  <score>  (22) 
3.9755587577819824

$$$$
KCUIBCLVAOOEPR-UHFFFAOYSA-N
     RDKit          3D

 40 40  0  0  0  0  0  0  0  0999 V2000
  120.2398  125.3417   82.2869 C   0  0  0  0  0  0  0  0  0  0  0  0
  120.5867  124.8173   83.6680 C   0  0  0  0  0  0  0  0  0  0  0  0
  120.0889  123.4500   83.9093 N   0  0  0  0  0  0  0  0  0  0  0  0
  120.4929  122.4126   82.9408 C   0  0  0  0  0  0  0  0  0  0  0  0
  119.3967  122.2297   81.9041 C   0  0  0  0  0  0  0  0  0  0  0  0
  119.4955  123.0041   85.4245 S   0  0  0  0  0  6  0  0  0  0  0  0
  118.8372  124.1608   85.9976 O   0  0  0  0  0  0  0  0  0  0  0  0
  118.8032  121.7391   85.3041 O   0  0  0  0  0  0  0  0  0  0  0  0
  120.9548  122.6991   86.4010 C   0  0  0  0  0  0  0  0  0  0  0  0
  120.8316  122.4377   87.7685 C   0  0  0  0  0  0  0  0  0  0  0  0
  121.9712  122.1710   88.5308 C   0  0  0  0  0  0  0  0  0  0  0  0
  123.2316  122.1675   87.9268 C   0  0  0  0  0  0  0  0  0  0  0  0
  124.4187  121.9255   88.5795 O   0  0  0  0  0  0  0  0  0  0  0  0
  124.3452  121.2273   89.8179 C   0  0  0  0  0  0  0  0  0  0  0  0
  123.3507  122.4322   86.5437 C   0  0  0  0  0  0  0  0  0  0  0  0
  124.6572  122.4205   86.0071 N   0  0  0  0  0  0  0  0  0  0  0  0
  125.1291  121.7373   84.8861 C   0  0  0  0  0  0  0  0  0  0  0  0
  124.5583  120.7594   84.3997 O   0  0  0  0  0  0  0  0  0  0  0  0
  126.4435  122.3220   84.3037 C   0  0  0  0  0  0  0  0  0  0  0  0
  127.1753  123.3904   85.5334 Cl  0  0  0  0  0  0  0  0  0  0  0  0
  126.0516  123.2792   82.8426 Cl  0  0  0  0  0  0  0  0  0  0  0  0
  127.5870  121.0303   83.8698 Cl  0  0  0  0  0  0  0  0  0  0  0  0
  122.2072  122.6728   85.7821 C   0  0  0  0  0  0  0  0  0  0  0  0
  119.6353  126.2557   82.3830 H   0  0  0  0  0  0  0  0  0  0  0  0
  121.1654  125.5703   81.7384 H   0  0  0  0  0  0  0  0  0  0  0  0
  119.6672  124.5793   81.7384 H   0  0  0  0  0  0  0  0  0  0  0  0
  121.6812  124.8157   83.7772 H   0  0  0  0  0  0  0  0  0  0  0  0
  120.1006  125.4776   84.4013 H   0  0  0  0  0  0  0  0  0  0  0  0
  121.4226  122.7211   82.4402 H   0  0  0  0  0  0  0  0  0  0  0  0
  120.6580  121.4626   83.4700 H   0  0  0  0  0  0  0  0  0  0  0  0
  118.4345  122.0691   82.4124 H   0  0  0  0  0  0  0  0  0  0  0  0
  119.3332  123.1297   81.2748 H   0  0  0  0  0  0  0  0  0  0  0  0
  119.6289  121.3579   81.2748 H   0  0  0  0  0  0  0  0  0  0  0  0
  119.8394  122.4419   88.2433 H   0  0  0  0  0  0  0  0  0  0  0  0
  121.8766  121.9636   89.6069 H   0  0  0  0  0  0  0  0  0  0  0  0
  124.4207  121.9447   90.6483 H   0  0  0  0  0  0  0  0  0  0  0  0
  123.3858  120.6929   89.8811 H   0  0  0  0  0  0  0  0  0  0  0  0
  125.1722  120.5048   89.8811 H   0  0  0  0  0  0  0  0  0  0  0  0
  125.3525  122.9910   86.5092 H   0  0  0  0  0  0  0  0  0  0  0  0
  122.2911  122.8413   84.6983 H   0  0  0  0  0  0  0  0  0  0  0  0
  1  2  1  0
  2  3  1  0
  3  4  1  0
  4  5  1  0
  3  6  1  0
  6  7  2  0
  6  8  2  0
  6  9  1  0
  9 10  2  0
 10 11  1  0
 11 12  2  0
 12 13  1  0
 13 14  1  0
 12 15  1  0
 15 16  1  0
 16 17  1  0
 17 18  2  0
 17 19  1  0
 19 20  1  0
 19 21  1  0
 19 22  1  0
 15 23  2  0
 23  9  1  0
  1 24  1  0
  1 25  1  0
  1 26  1  0
  2 27  1  0
  2 28  1  0
  4 29  1  0
  4 30  1  0
  5 31  1  0
  5 32  1  0
  5 33  1  0
 10 34  1  0
 11 35  1  0
 14 36  1  0
 14 37  1  0
 14 38  1  0
 16 39  1  0
 23 40  1  0
M  END
>  <loss>  (23) 
0.49608758091926575

>  <score>  (23) 
3.8989129066467285

$$$$
KCUIBCLVAOOEPR-UHFFFAOYSA-N
     RDKit          3D

 40 40  0  0  0  0  0  0  0  0999 V2000
  120.1834  125.9221   82.9874 C   0  0  0  0  0  0  0  0  0  0  0  0
  120.6698  125.0006   84.0946 C   0  0  0  0  0  0  0  0  0  0  0  0
  120.0929  123.6477   83.9387 N   0  0  0  0  0  0  0  0  0  0  0  0
  120.6005  122.7986   82.8303 C   0  0  0  0  0  0  0  0  0  0  0  0
  119.5104  122.1896   81.9647 C   0  0  0  0  0  0  0  0  0  0  0  0
  119.4746  122.8818   85.3238 S   0  0  0  0  0  6  0  0  0  0  0  0
  118.9581  121.5817   84.9544 O   0  0  0  0  0  0  0  0  0  0  0  0
  118.6424  123.8310   86.0349 O   0  0  0  0  0  0  0  0  0  0  0  0
  120.9292  122.6171   86.3171 C   0  0  0  0  0  0  0  0  0  0  0  0
  120.7962  122.3574   87.6832 C   0  0  0  0  0  0  0  0  0  0  0  0
  121.9325  122.1022   88.4534 C   0  0  0  0  0  0  0  0  0  0  0  0
  123.1975  122.1101   87.8581 C   0  0  0  0  0  0  0  0  0  0  0  0
  124.3819  121.8796   88.5202 O   0  0  0  0  0  0  0  0  0  0  0  0
  124.2978  121.5593   89.9046 C   0  0  0  0  0  0  0  0  0  0  0  0
  123.3255  122.3787   86.4761 C   0  0  0  0  0  0  0  0  0  0  0  0
  124.6371  122.3878   85.9525 N   0  0  0  0  0  0  0  0  0  0  0  0
  125.1164  121.7548   84.8057 C   0  0  0  0  0  0  0  0  0  0  0  0
  124.5562  120.7908   84.2815 O   0  0  0  0  0  0  0  0  0  0  0  0
  126.4222  122.3782   84.2452 C   0  0  0  0  0  0  0  0  0  0  0  0
  127.1418  123.4082   85.5142 Cl  0  0  0  0  0  0  0  0  0  0  0  0
  127.5819  121.1203   83.7593 Cl  0  0  0  0  0  0  0  0  0  0  0  0
  126.0151  123.3867   82.8227 Cl  0  0  0  0  0  0  0  0  0  0  0  0
  122.1858  122.6042   85.7047 C   0  0  0  0  0  0  0  0  0  0  0  0
  119.7135  126.8122   83.4312 H   0  0  0  0  0  0  0  0  0  0  0  0
  121.0366  126.2297   82.3650 H   0  0  0  0  0  0  0  0  0  0  0  0
  119.4480  125.3912   82.3650 H   0  0  0  0  0  0  0  0  0  0  0  0
  121.7669  124.9326   84.0521 H   0  0  0  0  0  0  0  0  0  0  0  0
  120.3506  125.4121   85.0635 H   0  0  0  0  0  0  0  0  0  0  0  0
  121.2453  123.4174   82.1889 H   0  0  0  0  0  0  0  0  0  0  0  0
  121.1410  121.9609   83.2950 H   0  0  0  0  0  0  0  0  0  0  0  0
  118.7315  121.7545   82.6081 H   0  0  0  0  0  0  0  0  0  0  0  0
  119.0672  122.9708   81.3296 H   0  0  0  0  0  0  0  0  0  0  0  0
  119.9433  121.4027   81.3296 H   0  0  0  0  0  0  0  0  0  0  0  0
  119.8003  122.3540   88.1502 H   0  0  0  0  0  0  0  0  0  0  0  0
  121.8324  121.8949   89.5290 H   0  0  0  0  0  0  0  0  0  0  0  0
  124.5323  122.4524   90.5025 H   0  0  0  0  0  0  0  0  0  0  0  0
  123.2794  121.2170   90.1406 H   0  0  0  0  0  0  0  0  0  0  0  0
  125.0168  120.7609   90.1406 H   0  0  0  0  0  0  0  0  0  0  0  0
  125.3293  122.9322   86.4867 H   0  0  0  0  0  0  0  0  0  0  0  0
  122.2750  122.7710   84.6211 H   0  0  0  0  0  0  0  0  0  0  0  0
  1  2  1  0
  2  3  1  0
  3  4  1  0
  4  5  1  0
  3  6  1  0
  6  7  2  0
  6  8  2  0
  6  9  1  0
  9 10  2  0
 10 11  1  0
 11 12  2  0
 12 13  1  0
 13 14  1  0
 12 15  1  0
 15 16  1  0
 16 17  1  0
 17 18  2  0
 17 19  1  0
 19 20  1  0
 19 21  1  0
 19 22  1  0
 15 23  2  0
 23  9  1  0
  1 24  1  0
  1 25  1  0
  1 26  1  0
  2 27  1  0
  2 28  1  0
  4 29  1  0
  4 30  1  0
  5 31  1  0
  5 32  1  0
  5 33  1  0
 10 34  1  0
 11 35  1  0
 14 36  1  0
 14 37  1  0
 14 38  1  0
 16 39  1  0
 23 40  1  0
M  END
>  <loss>  (24) 
0.5104112029075623

>  <score>  (24) 
3.944505453109741

$$$$
KCUIBCLVAOOEPR-UHFFFAOYSA-N
     RDKit          3D

 40 40  0  0  0  0  0  0  0  0999 V2000
  120.1037  125.9899   83.2650 C   0  0  0  0  0  0  0  0  0  0  0  0
  120.4731  124.9975   84.3560 C   0  0  0  0  0  0  0  0  0  0  0  0
  120.0540  123.6295   83.9809 N   0  0  0  0  0  0  0  0  0  0  0  0
  120.6392  123.0355   82.7513 C   0  0  0  0  0  0  0  0  0  0  0  0
  119.9098  123.4105   81.4723 C   0  0  0  0  0  0  0  0  0  0  0  0
  119.5500  122.5835   85.2215 S   0  0  0  0  0  6  0  0  0  0  0  0
  119.3299  121.2649   84.6678 O   0  0  0  0  0  0  0  0  0  0  0  0
  118.5100  123.2471   85.9812 O   0  0  0  0  0  0  0  0  0  0  0  0
  120.9846  122.4897   86.2729 C   0  0  0  0  0  0  0  0  0  0  0  0
  120.8229  122.4036   87.6577 C   0  0  0  0  0  0  0  0  0  0  0  0
  121.9451  122.2815   88.4796 C   0  0  0  0  0  0  0  0  0  0  0  0
  123.2244  122.2490   87.9167 C   0  0  0  0  0  0  0  0  0  0  0  0
  124.3968  122.1390   88.6293 O   0  0  0  0  0  0  0  0  0  0  0  0
  124.3785  121.3015   89.7802 C   0  0  0  0  0  0  0  0  0  0  0  0
  123.3813  122.3417   86.5148 C   0  0  0  0  0  0  0  0  0  0  0  0
  124.7053  122.3209   86.0239 N   0  0  0  0  0  0  0  0  0  0  0  0
  125.2023  121.6605   84.9003 C   0  0  0  0  0  0  0  0  0  0  0  0
  124.7217  120.6132   84.4642 O   0  0  0  0  0  0  0  0  0  0  0  0
  126.4177  122.3678   84.2443 C   0  0  0  0  0  0  0  0  0  0  0  0
  127.3708  121.1423   83.3619 Cl  0  0  0  0  0  0  0  0  0  0  0  0
  125.8940  123.6463   83.1244 Cl  0  0  0  0  0  0  0  0  0  0  0  0
  127.4288  123.0903   85.5334 Cl  0  0  0  0  0  0  0  0  0  0  0  0
  122.2565  122.4341   85.6955 C   0  0  0  0  0  0  0  0  0  0  0  0
  119.7549  126.9266   83.7242 H   0  0  0  0  0  0  0  0  0  0  0  0
  120.9861  126.1939   82.6407 H   0  0  0  0  0  0  0  0  0  0  0  0
  119.3027  125.5672   82.6407 H   0  0  0  0  0  0  0  0  0  0  0  0
  121.5629  125.0134   84.5048 H   0  0  0  0  0  0  0  0  0  0  0  0
  119.9573  125.2837   85.2844 H   0  0  0  0  0  0  0  0  0  0  0  0
  121.6820  123.3750   82.6664 H   0  0  0  0  0  0  0  0  0  0  0  0
  120.5544  121.9437   82.8558 H   0  0  0  0  0  0  0  0  0  0  0  0
  118.9574  123.9003   81.7234 H   0  0  0  0  0  0  0  0  0  0  0  0
  120.5327  124.1001   80.8837 H   0  0  0  0  0  0  0  0  0  0  0  0
  119.7113  122.5027   80.8837 H   0  0  0  0  0  0  0  0  0  0  0  0
  119.8157  122.4317   88.0989 H   0  0  0  0  0  0  0  0  0  0  0  0
  121.8225  122.2110   89.5705 H   0  0  0  0  0  0  0  0  0  0  0  0
  124.3921  121.9242   90.6870 H   0  0  0  0  0  0  0  0  0  0  0  0
  123.4667  120.6863   89.7716 H   0  0  0  0  0  0  0  0  0  0  0  0
  125.2625  120.6470   89.7716 H   0  0  0  0  0  0  0  0  0  0  0  0
  125.3929  122.8635   86.5658 H   0  0  0  0  0  0  0  0  0  0  0  0
  122.3694  122.4631   84.6017 H   0  0  0  0  0  0  0  0  0  0  0  0
  1  2  1  0
  2  3  1  0
  3  4  1  0
  4  5  1  0
  3  6  1  0
  6  7  2  0
  6  8  2  0
  6  9  1  0
  9 10  2  0
 10 11  1  0
 11 12  2  0
 12 13  1  0
 13 14  1  0
 12 15  1  0
 15 16  1  0
 16 17  1  0
 17 18  2  0
 17 19  1  0
 19 20  1  0
 19 21  1  0
 19 22  1  0
 15 23  2  0
 23  9  1  0
  1 24  1  0
  1 25  1  0
  1 26  1  0
  2 27  1  0
  2 28  1  0
  4 29  1  0
  4 30  1  0
  5 31  1  0
  5 32  1  0
  5 33  1  0
 10 34  1  0
 11 35  1  0
 14 36  1  0
 14 37  1  0
 14 38  1  0
 16 39  1  0
 23 40  1  0
M  END
>  <loss>  (25) 
0.5066048502922058

>  <score>  (25) 
3.8959503173828125

$$$$
