KGYQRGXFOKPZDO-UHFFFAOYSA-N
     RDKit          3D

 36 36  0  0  0  0  0  0  0  0999 V2000
  114.3219  122.9023   86.1188 C   0  0  0  0  0  0  0  0  0  0  0  0
  115.8010  122.5710   85.8443 C   0  0  0  0  0  0  0  0  0  0  0  0
  116.2769  121.5568   86.8895 C   0  0  0  0  0  0  0  0  0  0  0  0
  115.9060  121.9799   84.4385 C   0  0  0  0  0  0  0  0  0  0  0  0
  116.5469  123.8317   86.0133 N   0  0  0  0  0  0  0  0  0  0  0  0
  117.2172  124.7991   84.8313 S   0  0  0  0  0  6  0  0  0  0  0  0
  117.2259  126.1362   85.3863 O   0  0  0  0  0  0  0  0  0  0  0  0
  116.5805  124.5217   83.5647 O   0  0  0  0  0  0  0  0  0  0  0  0
  118.9067  124.2672   84.7519 C   0  0  0  0  0  0  0  0  0  0  0  0
  119.5226  124.0577   83.5181 C   0  0  0  0  0  0  0  0  0  0  0  0
  120.8624  123.6551   83.4692 C   0  0  0  0  0  0  0  0  0  0  0  0
  121.5951  123.4761   84.6457 C   0  0  0  0  0  0  0  0  0  0  0  0
  122.9462  123.0750   84.6864 N   0  0  0  0  0  0  0  0  0  0  0  0
  123.7070  122.4985   83.6615 C   0  0  0  0  0  0  0  0  0  0  0  0
  123.2182  121.9597   82.6680 O   0  0  0  0  0  0  0  0  0  0  0  0
  125.2387  122.5511   83.9137 C   0  0  0  0  0  0  0  0  0  0  0  0
  125.9871  121.2110   82.9983 Cl  0  0  0  0  0  0  0  0  0  0  0  0
  125.9284  124.1038   83.3943 Cl  0  0  0  0  0  0  0  0  0  0  0  0
  125.5554  122.3153   85.6603 Cl  0  0  0  0  0  0  0  0  0  0  0  0
  120.9679  123.7126   85.8783 C   0  0  0  0  0  0  0  0  0  0  0  0
  119.6294  124.1110   85.9359 C   0  0  0  0  0  0  0  0  0  0  0  0
  114.1502  122.9407   87.2047 H   0  0  0  0  0  0  0  0  0  0  0  0
  114.0759  123.8777   85.6739 H   0  0  0  0  0  0  0  0  0  0  0  0
  113.6833  122.1249   85.6739 H   0  0  0  0  0  0  0  0  0  0  0  0
  116.0902  121.9546   87.8979 H   0  0  0  0  0  0  0  0  0  0  0  0
  115.7280  120.6123   86.7605 H   0  0  0  0  0  0  0  0  0  0  0  0
  117.3541  121.3754   86.7605 H   0  0  0  0  0  0  0  0  0  0  0  0
  116.0981  120.8991   84.5086 H   0  0  0  0  0  0  0  0  0  0  0  0
  114.9635  122.1505   83.8976 H   0  0  0  0  0  0  0  0  0  0  0  0
  116.7321  122.4648   83.8976 H   0  0  0  0  0  0  0  0  0  0  0  0
  115.8984  124.4514   86.5196 H   0  0  0  0  0  0  0  0  0  0  0  0
  118.9573  124.2084   82.5866 H   0  0  0  0  0  0  0  0  0  0  0  0
  121.3430  123.4780   82.4957 H   0  0  0  0  0  0  0  0  0  0  0  0
  123.4344  123.2245   85.5810 H   0  0  0  0  0  0  0  0  0  0  0  0
  121.5366  123.5827   86.8109 H   0  0  0  0  0  0  0  0  0  0  0  0
  119.1490  124.3002   86.9072 H   0  0  0  0  0  0  0  0  0  0  0  0
  1  2  1  0
  2  3  1  0
  2  4  1  0
  2  5  1  0
  5  6  1  0
  6  7  2  0
  6  8  2  0
  6  9  1  0
  9 10  2  0
 10 11  1  0
 11 12  2  0
 12 13  1  0
 13 14  1  0
 14 15  2  0
 14 16  1  0
 16 17  1  0
 16 18  1  0
 16 19  1  0
 12 20  1  0
 20 21  2  0
 21  9  1  0
  1 22  1  0
  1 23  1  0
  1 24  1  0
  3 25  1  0
  3 26  1  0
  3 27  1  0
  4 28  1  0
  4 29  1  0
  4 30  1  0
  5 31  1  0
 10 32  1  0
 11 33  1  0
 13 34  1  0
 20 35  1  0
 21 36  1  0
M  END
>  <loss>  (1) 
0.6098592877388

>  <score>  (1) 
1.0127897262573242

$$$$
KGYQRGXFOKPZDO-UHFFFAOYSA-N
     RDKit          3D

 36 36  0  0  0  0  0  0  0  0999 V2000
  115.8927  121.9101   84.4020 C   0  0  0  0  0  0  0  0  0  0  0  0
  115.7751  122.4436   85.8297 C   0  0  0  0  0  0  0  0  0  0  0  0
  116.2522  121.3917   86.8364 C   0  0  0  0  0  0  0  0  0  0  0  0
  114.2920  122.7531   86.1082 C   0  0  0  0  0  0  0  0  0  0  0  0
  116.5107  123.7017   86.0537 N   0  0  0  0  0  0  0  0  0  0  0  0
  117.1677  124.7283   84.9149 S   0  0  0  0  0  6  0  0  0  0  0  0
  117.1587  126.0400   85.5274 O   0  0  0  0  0  0  0  0  0  0  0  0
  116.5344  124.4976   83.6373 O   0  0  0  0  0  0  0  0  0  0  0  0
  118.8642  124.2229   84.8130 C   0  0  0  0  0  0  0  0  0  0  0  0
  119.6022  124.0691   85.9878 C   0  0  0  0  0  0  0  0  0  0  0  0
  120.9458  123.6916   85.9126 C   0  0  0  0  0  0  0  0  0  0  0  0
  121.5629  123.4739   84.6714 C   0  0  0  0  0  0  0  0  0  0  0  0
  122.9204  123.0931   84.6943 N   0  0  0  0  0  0  0  0  0  0  0  0
  123.6716  122.5119   83.6651 C   0  0  0  0  0  0  0  0  0  0  0  0
  123.1735  121.9692   82.6783 O   0  0  0  0  0  0  0  0  0  0  0  0
  125.2055  122.5644   83.9033 C   0  0  0  0  0  0  0  0  0  0  0  0
  125.5394  122.3058   85.6434 Cl  0  0  0  0  0  0  0  0  0  0  0  0
  125.8870  124.1255   83.3983 Cl  0  0  0  0  0  0  0  0  0  0  0  0
  125.9479  121.2384   82.9628 Cl  0  0  0  0  0  0  0  0  0  0  0  0
  120.8146  123.6503   83.5044 C   0  0  0  0  0  0  0  0  0  0  0  0
  119.4694  124.0320   83.5710 C   0  0  0  0  0  0  0  0  0  0  0  0
  116.1295  120.8362   84.4302 H   0  0  0  0  0  0  0  0  0  0  0  0
  114.9396  122.0616   83.8743 H   0  0  0  0  0  0  0  0  0  0  0  0
  116.6937  122.4484   83.8743 H   0  0  0  0  0  0  0  0  0  0  0  0
  116.0849  121.7605   87.8591 H   0  0  0  0  0  0  0  0  0  0  0  0
  115.6892  120.4587   86.6864 H   0  0  0  0  0  0  0  0  0  0  0  0
  117.3250  121.2007   86.6864 H   0  0  0  0  0  0  0  0  0  0  0  0
  114.1225  122.7885   87.1944 H   0  0  0  0  0  0  0  0  0  0  0  0
  114.0307  123.7251   85.6644 H   0  0  0  0  0  0  0  0  0  0  0  0
  113.6637  121.9667   85.6644 H   0  0  0  0  0  0  0  0  0  0  0  0
  115.8591  124.2918   86.5904 H   0  0  0  0  0  0  0  0  0  0  0  0
  119.1298  124.2437   86.9657 H   0  0  0  0  0  0  0  0  0  0  0  0
  121.5267  123.5635   86.8379 H   0  0  0  0  0  0  0  0  0  0  0  0
  123.4218  123.2637   85.5776 H   0  0  0  0  0  0  0  0  0  0  0  0
  121.2871  123.4878   82.5244 H   0  0  0  0  0  0  0  0  0  0  0  0
  118.8916  124.1809   82.6469 H   0  0  0  0  0  0  0  0  0  0  0  0
  1  2  1  0
  2  3  1  0
  2  4  1  0
  2  5  1  0
  5  6  1  0
  6  7  2  0
  6  8  2  0
  6  9  1  0
  9 10  2  0
 10 11  1  0
 11 12  2  0
 12 13  1  0
 13 14  1  0
 14 15  2  0
 14 16  1  0
 16 17  1  0
 16 18  1  0
 16 19  1  0
 12 20  1  0
 20 21  2  0
 21  9  1  0
  1 22  1  0
  1 23  1  0
  1 24  1  0
  3 25  1  0
  3 26  1  0
  3 27  1  0
  4 28  1  0
  4 29  1  0
  4 30  1  0
  5 31  1  0
 10 32  1  0
 11 33  1  0
 13 34  1  0
 20 35  1  0
 21 36  1  0
M  END
>  <loss>  (2) 
0.6126339435577393

>  <score>  (2) 
1.0266168117523193

$$$$
KGYQRGXFOKPZDO-UHFFFAOYSA-N
     RDKit          3D

 36 36  0  0  0  0  0  0  0  0999 V2000
  115.8085  122.1405   83.6353 C   0  0  0  0  0  0  0  0  0  0  0  0
  115.7033  122.3853   85.1405 C   0  0  0  0  0  0  0  0  0  0  0  0
  116.2199  121.1709   85.9189 C   0  0  0  0  0  0  0  0  0  0  0  0
  114.2188  122.5990   85.4917 C   0  0  0  0  0  0  0  0  0  0  0  0
  116.4152  123.5942   85.5944 N   0  0  0  0  0  0  0  0  0  0  0  0
  117.1765  124.7519   84.6656 S   0  0  0  0  0  6  0  0  0  0  0  0
  117.1231  125.9695   85.4470 O   0  0  0  0  0  0  0  0  0  0  0  0
  116.6558  124.7066   83.3190 O   0  0  0  0  0  0  0  0  0  0  0  0
  118.8718  124.2330   84.6422 C   0  0  0  0  0  0  0  0  0  0  0  0
  119.5601  124.0951   85.8487 C   0  0  0  0  0  0  0  0  0  0  0  0
  120.9028  123.7071   85.8351 C   0  0  0  0  0  0  0  0  0  0  0  0
  121.5683  123.4630   84.6242 C   0  0  0  0  0  0  0  0  0  0  0  0
  122.9208  123.0734   84.7093 N   0  0  0  0  0  0  0  0  0  0  0  0
  123.7328  122.5464   83.6972 C   0  0  0  0  0  0  0  0  0  0  0  0
  123.2965  122.0812   82.6439 O   0  0  0  0  0  0  0  0  0  0  0  0
  125.2468  122.5510   84.0435 C   0  0  0  0  0  0  0  0  0  0  0  0
  126.0119  121.0857   83.3549 Cl  0  0  0  0  0  0  0  0  0  0  0  0
  125.5101  122.5828   85.8002 Cl  0  0  0  0  0  0  0  0  0  0  0  0
  125.9732  123.9988   83.2885 Cl  0  0  0  0  0  0  0  0  0  0  0  0
  120.8696  123.6238   83.4246 C   0  0  0  0  0  0  0  0  0  0  0  0
  119.5257  124.0159   83.4295 C   0  0  0  0  0  0  0  0  0  0  0  0
  116.2367  121.1434   83.4550 H   0  0  0  0  0  0  0  0  0  0  0  0
  114.8070  122.1965   83.1838 H   0  0  0  0  0  0  0  0  0  0  0  0
  116.4575  122.9053   83.1838 H   0  0  0  0  0  0  0  0  0  0  0  0
  116.1373  121.3651   86.9984 H   0  0  0  0  0  0  0  0  0  0  0  0
  115.6201  120.2863   85.6585 H   0  0  0  0  0  0  0  0  0  0  0  0
  117.2731  120.9894   85.6585 H   0  0  0  0  0  0  0  0  0  0  0  0
  114.0995  122.6161   86.5851 H   0  0  0  0  0  0  0  0  0  0  0  0
  113.8763  123.5557   85.0705 H   0  0  0  0  0  0  0  0  0  0  0  0
  113.6204  121.7777   85.0705 H   0  0  0  0  0  0  0  0  0  0  0  0
  115.7164  124.1176   86.1408 H   0  0  0  0  0  0  0  0  0  0  0  0
  119.0495  124.2905   86.8032 H   0  0  0  0  0  0  0  0  0  0  0  0
  121.4444  123.5916   86.7855 H   0  0  0  0  0  0  0  0  0  0  0  0
  123.3669  123.1910   85.6301 H   0  0  0  0  0  0  0  0  0  0  0  0
  121.3803  123.4406   82.4678 H   0  0  0  0  0  0  0  0  0  0  0  0
  118.9873  124.1522   82.4800 H   0  0  0  0  0  0  0  0  0  0  0  0
  1  2  1  0
  2  3  1  0
  2  4  1  0
  2  5  1  0
  5  6  1  0
  6  7  2  0
  6  8  2  0
  6  9  1  0
  9 10  2  0
 10 11  1  0
 11 12  2  0
 12 13  1  0
 13 14  1  0
 14 15  2  0
 14 16  1  0
 16 17  1  0
 16 18  1  0
 16 19  1  0
 12 20  1  0
 20 21  2  0
 21  9  1  0
  1 22  1  0
  1 23  1  0
  1 24  1  0
  3 25  1  0
  3 26  1  0
  3 27  1  0
  4 28  1  0
  4 29  1  0
  4 30  1  0
  5 31  1  0
 10 32  1  0
 11 33  1  0
 13 34  1  0
 20 35  1  0
 21 36  1  0
M  END
>  <loss>  (3) 
0.6152934432029724

>  <score>  (3) 
1.0330461263656616

$$$$
KGYQRGXFOKPZDO-UHFFFAOYSA-N
     RDKit          3D

 36 36  0  0  0  0  0  0  0  0999 V2000
  115.9824  121.8896   84.4173 C   0  0  0  0  0  0  0  0  0  0  0  0
  115.8519  122.4793   85.8215 C   0  0  0  0  0  0  0  0  0  0  0  0
  116.3487  121.4799   86.8713 C   0  0  0  0  0  0  0  0  0  0  0  0
  114.3625  122.7702   86.0860 C   0  0  0  0  0  0  0  0  0  0  0  0
  116.5618  123.7602   85.9935 N   0  0  0  0  0  0  0  0  0  0  0  0
  117.2212  124.7396   84.8152 S   0  0  0  0  0  6  0  0  0  0  0  0
  117.2067  126.0759   85.3719 O   0  0  0  0  0  0  0  0  0  0  0  0
  116.5937  124.4537   83.5460 O   0  0  0  0  0  0  0  0  0  0  0  0
  118.9192  124.2345   84.7417 C   0  0  0  0  0  0  0  0  0  0  0  0
  119.6388  124.0850   85.9284 C   0  0  0  0  0  0  0  0  0  0  0  0
  120.9836  123.7077   85.8754 C   0  0  0  0  0  0  0  0  0  0  0  0
  121.6201  123.4861   84.6448 C   0  0  0  0  0  0  0  0  0  0  0  0
  122.9772  123.1060   84.6902 N   0  0  0  0  0  0  0  0  0  0  0  0
  123.7430  122.5160   83.6769 C   0  0  0  0  0  0  0  0  0  0  0  0
  123.2594  121.9797   82.6794 O   0  0  0  0  0  0  0  0  0  0  0  0
  125.2720  122.5498   83.9477 C   0  0  0  0  0  0  0  0  0  0  0  0
  125.5606  122.3990   85.7085 Cl  0  0  0  0  0  0  0  0  0  0  0  0
  126.0017  124.0585   83.3581 Cl  0  0  0  0  0  0  0  0  0  0  0  0
  126.0033  121.1484   83.1138 Cl  0  0  0  0  0  0  0  0  0  0  0  0
  120.8901  123.6583   83.4656 C   0  0  0  0  0  0  0  0  0  0  0  0
  119.5439  124.0397   83.5099 C   0  0  0  0  0  0  0  0  0  0  0  0
  116.2194  120.8179   84.4902 H   0  0  0  0  0  0  0  0  0  0  0  0
  115.0338  122.0193   83.8756 H   0  0  0  0  0  0  0  0  0  0  0  0
  116.7878  122.4071   83.8756 H   0  0  0  0  0  0  0  0  0  0  0  0
  116.1513  121.8770   87.8779 H   0  0  0  0  0  0  0  0  0  0  0  0
  115.8214  120.5228   86.7448 H   0  0  0  0  0  0  0  0  0  0  0  0
  117.4300  121.3223   86.7448 H   0  0  0  0  0  0  0  0  0  0  0  0
  114.1828  122.8053   87.1706 H   0  0  0  0  0  0  0  0  0  0  0  0
  114.0928  123.7380   85.6381 H   0  0  0  0  0  0  0  0  0  0  0  0
  113.7485  121.9750   85.6381 H   0  0  0  0  0  0  0  0  0  0  0  0
  115.8907  124.3648   86.4885 H   0  0  0  0  0  0  0  0  0  0  0  0
  119.1511  124.2628   86.8982 H   0  0  0  0  0  0  0  0  0  0  0  0
  121.5500  123.5831   86.8102 H   0  0  0  0  0  0  0  0  0  0  0  0
  123.4661  123.2845   85.5791 H   0  0  0  0  0  0  0  0  0  0  0  0
  121.3779  123.4926   82.4937 H   0  0  0  0  0  0  0  0  0  0  0  0
  118.9806  124.1852   82.5763 H   0  0  0  0  0  0  0  0  0  0  0  0
  1  2  1  0
  2  3  1  0
  2  4  1  0
  2  5  1  0
  5  6  1  0
  6  7  2  0
  6  8  2  0
  6  9  1  0
  9 10  2  0
 10 11  1  0
 11 12  2  0
 12 13  1  0
 13 14  1  0
 14 15  2  0
 14 16  1  0
 16 17  1  0
 16 18  1  0
 16 19  1  0
 12 20  1  0
 20 21  2  0
 21  9  1  0
  1 22  1  0
  1 23  1  0
  1 24  1  0
  3 25  1  0
  3 26  1  0
  3 27  1  0
  4 28  1  0
  4 29  1  0
  4 30  1  0
  5 31  1  0
 10 32  1  0
 11 33  1  0
 13 34  1  0
 20 35  1  0
 21 36  1  0
M  END
>  <loss>  (4) 
0.6099852323532104

>  <score>  (4) 
1.0046755075454712

$$$$
KGYQRGXFOKPZDO-UHFFFAOYSA-N
     RDKit          3D

 36 36  0  0  0  0  0  0  0  0999 V2000
  114.2530  122.6259   85.5074 C   0  0  0  0  0  0  0  0  0  0  0  0
  115.7469  122.3352   85.2694 C   0  0  0  0  0  0  0  0  0  0  0  0
  116.1566  121.1405   86.1369 C   0  0  0  0  0  0  0  0  0  0  0  0
  115.9416  122.0126   83.7880 C   0  0  0  0  0  0  0  0  0  0  0  0
  116.4792  123.5350   85.7149 N   0  0  0  0  0  0  0  0  0  0  0  0
  117.1983  124.7114   84.7762 S   0  0  0  0  0  6  0  0  0  0  0  0
  117.1459  125.9222   85.5681 O   0  0  0  0  0  0  0  0  0  0  0  0
  116.6441  124.6679   83.4430 O   0  0  0  0  0  0  0  0  0  0  0  0
  118.9003  124.2196   84.7055 C   0  0  0  0  0  0  0  0  0  0  0  0
  119.5458  124.0889   83.4759 C   0  0  0  0  0  0  0  0  0  0  0  0
  120.8948  123.7174   83.4349 C   0  0  0  0  0  0  0  0  0  0  0  0
  121.6070  123.4913   84.6159 C   0  0  0  0  0  0  0  0  0  0  0  0
  122.9654  123.1167   84.6646 N   0  0  0  0  0  0  0  0  0  0  0  0
  123.7307  122.5111   83.6601 C   0  0  0  0  0  0  0  0  0  0  0  0
  123.2479  121.9850   82.6569 O   0  0  0  0  0  0  0  0  0  0  0  0
  125.2568  122.5136   83.9486 C   0  0  0  0  0  0  0  0  0  0  0  0
  125.9777  121.1304   83.0762 Cl  0  0  0  0  0  0  0  0  0  0  0  0
  126.0146  124.0304   83.4181 Cl  0  0  0  0  0  0  0  0  0  0  0  0
  125.5231  122.2999   85.7064 Cl  0  0  0  0  0  0  0  0  0  0  0  0
  120.9496  123.6488   85.8454 C   0  0  0  0  0  0  0  0  0  0  0  0
  119.6018  124.0158   85.8950 C   0  0  0  0  0  0  0  0  0  0  0  0
  114.0547  122.6645   86.5887 H   0  0  0  0  0  0  0  0  0  0  0  0
  113.9903  123.5920   85.0517 H   0  0  0  0  0  0  0  0  0  0  0  0
  113.6472  121.8288   85.0517 H   0  0  0  0  0  0  0  0  0  0  0  0
  116.0642  121.4100   87.1993 H   0  0  0  0  0  0  0  0  0  0  0  0
  115.5002  120.2856   85.9170 H   0  0  0  0  0  0  0  0  0  0  0  0
  117.1994  120.8682   85.9170 H   0  0  0  0  0  0  0  0  0  0  0  0
  116.5077  121.0748   83.6882 H   0  0  0  0  0  0  0  0  0  0  0  0
  114.9597  121.9014   83.3048 H   0  0  0  0  0  0  0  0  0  0  0  0
  116.4975  122.8296   83.3048 H   0  0  0  0  0  0  0  0  0  0  0  0
  115.8060  124.0470   86.3028 H   0  0  0  0  0  0  0  0  0  0  0  0
  118.9966  124.2771   82.5416 H   0  0  0  0  0  0  0  0  0  0  0  0
  121.3991  123.6023   82.4640 H   0  0  0  0  0  0  0  0  0  0  0  0
  123.4559  123.3127   85.5489 H   0  0  0  0  0  0  0  0  0  0  0  0
  121.5017  123.4814   86.7820 H   0  0  0  0  0  0  0  0  0  0  0  0
  119.0976  124.1431   86.8643 H   0  0  0  0  0  0  0  0  0  0  0  0
  1  2  1  0
  2  3  1  0
  2  4  1  0
  2  5  1  0
  5  6  1  0
  6  7  2  0
  6  8  2  0
  6  9  1  0
  9 10  2  0
 10 11  1  0
 11 12  2  0
 12 13  1  0
 13 14  1  0
 14 15  2  0
 14 16  1  0
 16 17  1  0
 16 18  1  0
 16 19  1  0
 12 20  1  0
 20 21  2  0
 21  9  1  0
  1 22  1  0
  1 23  1  0
  1 24  1  0
  3 25  1  0
  3 26  1  0
  3 27  1  0
  4 28  1  0
  4 29  1  0
  4 30  1  0
  5 31  1  0
 10 32  1  0
 11 33  1  0
 13 34  1  0
 20 35  1  0
 21 36  1  0
M  END
>  <loss>  (5) 
0.6130566596984863

>  <score>  (5) 
0.9985963702201843

$$$$
KGYQRGXFOKPZDO-UHFFFAOYSA-N
     RDKit          3D

 36 36  0  0  0  0  0  0  0  0999 V2000
  114.2832  122.7804   83.3704 C   0  0  0  0  0  0  0  0  0  0  0  0
  115.7470  122.3494   83.5808 C   0  0  0  0  0  0  0  0  0  0  0  0
  116.0225  121.1157   82.7149 C   0  0  0  0  0  0  0  0  0  0  0  0
  115.9406  122.0187   85.0606 C   0  0  0  0  0  0  0  0  0  0  0  0
  116.5813  123.4708   83.1111 N   0  0  0  0  0  0  0  0  0  0  0  0
  117.2433  124.7102   84.0101 S   0  0  0  0  0  6  0  0  0  0  0  0
  117.2748  125.8548   83.1243 O   0  0  0  0  0  0  0  0  0  0  0  0
  116.5838  124.7785   85.2934 O   0  0  0  0  0  0  0  0  0  0  0  0
  118.9256  124.2073   84.2564 C   0  0  0  0  0  0  0  0  0  0  0  0
  119.7345  123.9629   83.1453 C   0  0  0  0  0  0  0  0  0  0  0  0
  121.0675  123.5870   83.3333 C   0  0  0  0  0  0  0  0  0  0  0  0
  121.6036  123.4607   84.6238 C   0  0  0  0  0  0  0  0  0  0  0  0
  122.9566  123.0742   84.7152 N   0  0  0  0  0  0  0  0  0  0  0  0
  123.7682  122.5281   83.7130 C   0  0  0  0  0  0  0  0  0  0  0  0
  123.3385  122.1146   82.6356 O   0  0  0  0  0  0  0  0  0  0  0  0
  125.2821  122.5367   84.0597 C   0  0  0  0  0  0  0  0  0  0  0  0
  126.0227  121.0993   83.2987 Cl  0  0  0  0  0  0  0  0  0  0  0  0
  125.5453  122.4999   85.8163 Cl  0  0  0  0  0  0  0  0  0  0  0  0
  126.0330  124.0123   83.3775 Cl  0  0  0  0  0  0  0  0  0  0  0  0
  120.7852  123.7272   85.7248 C   0  0  0  0  0  0  0  0  0  0  0  0
  119.4501  124.1079   85.5450 C   0  0  0  0  0  0  0  0  0  0  0  0
  113.7989  122.9230   84.3478 H   0  0  0  0  0  0  0  0  0  0  0  0
  114.2563  123.7246   82.8067 H   0  0  0  0  0  0  0  0  0  0  0  0
  113.7489  122.0015   82.8067 H   0  0  0  0  0  0  0  0  0  0  0  0
  116.2161  120.2485   83.3634 H   0  0  0  0  0  0  0  0  0  0  0  0
  115.1480  120.9107   82.0799 H   0  0  0  0  0  0  0  0  0  0  0  0
  116.9011  121.3022   82.0799 H   0  0  0  0  0  0  0  0  0  0  0  0
  115.4799  122.8058   85.6755 H   0  0  0  0  0  0  0  0  0  0  0  0
  115.4654  121.0524   85.2856 H   0  0  0  0  0  0  0  0  0  0  0  0
  117.0157  121.9597   85.2856 H   0  0  0  0  0  0  0  0  0  0  0  0
  117.3879  123.0213   82.6547 H   0  0  0  0  0  0  0  0  0  0  0  0
  119.3258  124.0655   82.1292 H   0  0  0  0  0  0  0  0  0  0  0  0
  121.7041  123.3876   82.4587 H   0  0  0  0  0  0  0  0  0  0  0  0
  123.4035  123.2103   85.6332 H   0  0  0  0  0  0  0  0  0  0  0  0
  121.1938  123.6369   86.7420 H   0  0  0  0  0  0  0  0  0  0  0  0
  118.8168  124.3280   86.4170 H   0  0  0  0  0  0  0  0  0  0  0  0
  1  2  1  0
  2  3  1  0
  2  4  1  0
  2  5  1  0
  5  6  1  0
  6  7  2  0
  6  8  2  0
  6  9  1  0
  9 10  2  0
 10 11  1  0
 11 12  2  0
 12 13  1  0
 13 14  1  0
 14 15  2  0
 14 16  1  0
 16 17  1  0
 16 18  1  0
 16 19  1  0
 12 20  1  0
 20 21  2  0
 21  9  1  0
  1 22  1  0
  1 23  1  0
  1 24  1  0
  3 25  1  0
  3 26  1  0
  3 27  1  0
  4 28  1  0
  4 29  1  0
  4 30  1  0
  5 31  1  0
 10 32  1  0
 11 33  1  0
 13 34  1  0
 20 35  1  0
 21 36  1  0
M  END
>  <loss>  (6) 
0.60896235704422

>  <score>  (6) 
0.975372850894928

$$$$
KGYQRGXFOKPZDO-UHFFFAOYSA-N
     RDKit          3D

 36 36  0  0  0  0  0  0  0  0999 V2000
  115.9161  122.0071   83.8879 C   0  0  0  0  0  0  0  0  0  0  0  0
  115.7425  122.3348   85.3709 C   0  0  0  0  0  0  0  0  0  0  0  0
  116.1489  121.1372   86.2359 C   0  0  0  0  0  0  0  0  0  0  0  0
  114.2549  122.6428   85.6258 C   0  0  0  0  0  0  0  0  0  0  0  0
  116.4935  123.5271   85.8052 N   0  0  0  0  0  0  0  0  0  0  0  0
  117.1975  124.7042   84.8559 S   0  0  0  0  0  6  0  0  0  0  0  0
  117.1537  125.9154   85.6477 O   0  0  0  0  0  0  0  0  0  0  0  0
  116.6252  124.6587   83.5304 O   0  0  0  0  0  0  0  0  0  0  0  0
  118.8993  124.2155   84.7623 C   0  0  0  0  0  0  0  0  0  0  0  0
  119.6079  123.9810   85.9419 C   0  0  0  0  0  0  0  0  0  0  0  0
  120.9555  123.6162   85.8748 C   0  0  0  0  0  0  0  0  0  0  0  0
  121.6057  123.4914   84.6377 C   0  0  0  0  0  0  0  0  0  0  0  0
  122.9647  123.1165   84.6686 N   0  0  0  0  0  0  0  0  0  0  0  0
  123.7190  122.5198   83.6506 C   0  0  0  0  0  0  0  0  0  0  0  0
  123.2253  121.9978   82.6507 O   0  0  0  0  0  0  0  0  0  0  0  0
  125.2488  122.5262   83.9195 C   0  0  0  0  0  0  0  0  0  0  0  0
  125.5406  122.2344   85.6620 Cl  0  0  0  0  0  0  0  0  0  0  0  0
  125.9831  124.0743   83.4503 Cl  0  0  0  0  0  0  0  0  0  0  0  0
  125.9728  121.1930   82.9748 Cl  0  0  0  0  0  0  0  0  0  0  0  0
  120.8865  123.7479   83.4673 C   0  0  0  0  0  0  0  0  0  0  0  0
  119.5376  124.1174   83.5260 C   0  0  0  0  0  0  0  0  0  0  0  0
  116.4287  121.0395   83.7837 H   0  0  0  0  0  0  0  0  0  0  0  0
  114.9285  121.9527   83.4064 H   0  0  0  0  0  0  0  0  0  0  0  0
  116.5159  122.7935   83.4064 H   0  0  0  0  0  0  0  0  0  0  0  0
  116.0580  121.4051   87.2989 H   0  0  0  0  0  0  0  0  0  0  0  0
  115.4897  120.2848   86.0149 H   0  0  0  0  0  0  0  0  0  0  0  0
  117.1907  120.8620   86.0149 H   0  0  0  0  0  0  0  0  0  0  0  0
  114.0688  122.6813   86.7093 H   0  0  0  0  0  0  0  0  0  0  0  0
  113.9989  123.6130   85.1751 H   0  0  0  0  0  0  0  0  0  0  0  0
  113.6346  121.8540   85.1751 H   0  0  0  0  0  0  0  0  0  0  0  0
  115.8383  124.0401   86.4121 H   0  0  0  0  0  0  0  0  0  0  0  0
  119.1094  124.0825   86.9171 H   0  0  0  0  0  0  0  0  0  0  0  0
  121.5133  123.4246   86.8034 H   0  0  0  0  0  0  0  0  0  0  0  0
  123.4646  123.3049   85.5492 H   0  0  0  0  0  0  0  0  0  0  0  0
  121.3850  123.6586   82.4908 H   0  0  0  0  0  0  0  0  0  0  0  0
  118.9827  124.3297   82.6002 H   0  0  0  0  0  0  0  0  0  0  0  0
  1  2  1  0
  2  3  1  0
  2  4  1  0
  2  5  1  0
  5  6  1  0
  6  7  2  0
  6  8  2  0
  6  9  1  0
  9 10  2  0
 10 11  1  0
 11 12  2  0
 12 13  1  0
 13 14  1  0
 14 15  2  0
 14 16  1  0
 16 17  1  0
 16 18  1  0
 16 19  1  0
 12 20  1  0
 20 21  2  0
 21  9  1  0
  1 22  1  0
  1 23  1  0
  1 24  1  0
  3 25  1  0
  3 26  1  0
  3 27  1  0
  4 28  1  0
  4 29  1  0
  4 30  1  0
  5 31  1  0
 10 32  1  0
 11 33  1  0
 13 34  1  0
 20 35  1  0
 21 36  1  0
M  END
>  <loss>  (7) 
0.6160281896591187

>  <score>  (7) 
0.99895179271698

$$$$
KGYQRGXFOKPZDO-UHFFFAOYSA-N
     RDKit          3D

 36 36  0  0  0  0  0  0  0  0999 V2000
  114.2340  122.6926   85.6718 C   0  0  0  0  0  0  0  0  0  0  0  0
  115.7189  122.3620   85.4298 C   0  0  0  0  0  0  0  0  0  0  0  0
  116.1111  121.1866   86.3310 C   0  0  0  0  0  0  0  0  0  0  0  0
  115.8924  121.9888   83.9576 C   0  0  0  0  0  0  0  0  0  0  0  0
  116.4811  123.5590   85.8305 N   0  0  0  0  0  0  0  0  0  0  0  0
  117.1800  124.7124   84.8489 S   0  0  0  0  0  6  0  0  0  0  0  0
  117.1454  125.9415   85.6130 O   0  0  0  0  0  0  0  0  0  0  0  0
  116.5967  124.6381   83.5295 O   0  0  0  0  0  0  0  0  0  0  0  0
  118.8799  124.2175   84.7526 C   0  0  0  0  0  0  0  0  0  0  0  0
  119.5145  124.1126   83.5150 C   0  0  0  0  0  0  0  0  0  0  0  0
  120.8620  123.7383   83.4541 C   0  0  0  0  0  0  0  0  0  0  0  0
  121.5835  123.4839   84.6236 C   0  0  0  0  0  0  0  0  0  0  0  0
  122.9412  123.1045   84.6523 N   0  0  0  0  0  0  0  0  0  0  0  0
  123.6945  122.5140   83.6299 C   0  0  0  0  0  0  0  0  0  0  0  0
  123.1989  121.9819   82.6361 O   0  0  0  0  0  0  0  0  0  0  0  0
  125.2263  122.5415   83.8853 C   0  0  0  0  0  0  0  0  0  0  0  0
  125.9645  121.2411   82.9065 Cl  0  0  0  0  0  0  0  0  0  0  0  0
  125.9295  124.1116   83.4423 Cl  0  0  0  0  0  0  0  0  0  0  0  0
  125.5391  122.2186   85.6187 Cl  0  0  0  0  0  0  0  0  0  0  0  0
  120.9370  123.6156   85.8619 C   0  0  0  0  0  0  0  0  0  0  0  0
  119.5908  123.9852   85.9312 C   0  0  0  0  0  0  0  0  0  0  0  0
  114.0396  122.7359   86.7536 H   0  0  0  0  0  0  0  0  0  0  0  0
  113.9962  123.6657   85.2173 H   0  0  0  0  0  0  0  0  0  0  0  0
  113.6059  121.9123   85.2173 H   0  0  0  0  0  0  0  0  0  0  0  0
  116.0119  121.4839   87.3854 H   0  0  0  0  0  0  0  0  0  0  0  0
  115.4495  120.3317   86.1272 H   0  0  0  0  0  0  0  0  0  0  0  0
  117.1535  120.9002   86.1272 H   0  0  0  0  0  0  0  0  0  0  0  0
  116.3550  120.9936   83.8837 H   0  0  0  0  0  0  0  0  0  0  0  0
  114.9090  121.9737   83.4649 H   0  0  0  0  0  0  0  0  0  0  0  0
  116.5380  122.7307   83.4649 H   0  0  0  0  0  0  0  0  0  0  0  0
  115.8358  124.0880   86.4343 H   0  0  0  0  0  0  0  0  0  0  0  0
  118.9579  124.3232   82.5898 H   0  0  0  0  0  0  0  0  0  0  0  0
  121.3576  123.6436   82.4766 H   0  0  0  0  0  0  0  0  0  0  0  0
  123.4411  123.2839   85.5348 H   0  0  0  0  0  0  0  0  0  0  0  0
  121.4966  123.4257   86.7897 H   0  0  0  0  0  0  0  0  0  0  0  0
  119.0952  124.0922   86.9074 H   0  0  0  0  0  0  0  0  0  0  0  0
  1  2  1  0
  2  3  1  0
  2  4  1  0
  2  5  1  0
  5  6  1  0
  6  7  2  0
  6  8  2  0
  6  9  1  0
  9 10  2  0
 10 11  1  0
 11 12  2  0
 12 13  1  0
 13 14  1  0
 14 15  2  0
 14 16  1  0
 16 17  1  0
 16 18  1  0
 16 19  1  0
 12 20  1  0
 20 21  2  0
 21  9  1  0
  1 22  1  0
  1 23  1  0
  1 24  1  0
  3 25  1  0
  3 26  1  0
  3 27  1  0
  4 28  1  0
  4 29  1  0
  4 30  1  0
  5 31  1  0
 10 32  1  0
 11 33  1  0
 13 34  1  0
 20 35  1  0
 21 36  1  0
M  END
>  <loss>  (8) 
0.6159787774085999

>  <score>  (8) 
0.9947130084037781

$$$$
KGYQRGXFOKPZDO-UHFFFAOYSA-N
     RDKit          3D

 36 36  0  0  0  0  0  0  0  0999 V2000
  114.1928  122.5909   85.6023 C   0  0  0  0  0  0  0  0  0  0  0  0
  115.6855  122.3105   85.3454 C   0  0  0  0  0  0  0  0  0  0  0  0
  116.1256  121.1478   86.2410 C   0  0  0  0  0  0  0  0  0  0  0  0
  115.8569  121.9449   83.8711 C   0  0  0  0  0  0  0  0  0  0  0  0
  116.4112  123.5318   85.7404 N   0  0  0  0  0  0  0  0  0  0  0  0
  117.1100  124.6804   84.7530 S   0  0  0  0  0  6  0  0  0  0  0  0
  117.0510  125.9189   85.5004 O   0  0  0  0  0  0  0  0  0  0  0  0
  116.5454  124.5821   83.4270 O   0  0  0  0  0  0  0  0  0  0  0  0
  118.8166  124.2041   84.6859 C   0  0  0  0  0  0  0  0  0  0  0  0
  119.4320  123.9580   83.4587 C   0  0  0  0  0  0  0  0  0  0  0  0
  120.7848  123.6002   83.4186 C   0  0  0  0  0  0  0  0  0  0  0  0
  121.5302  123.5024   84.5966 C   0  0  0  0  0  0  0  0  0  0  0  0
  122.8948  123.1507   84.6459 N   0  0  0  0  0  0  0  0  0  0  0  0
  123.6706  122.5584   83.6415 C   0  0  0  0  0  0  0  0  0  0  0  0
  123.1980  122.0387   82.6302 O   0  0  0  0  0  0  0  0  0  0  0  0
  125.1946  122.5667   83.9411 C   0  0  0  0  0  0  0  0  0  0  0  0
  125.4002  122.5500   85.7163 Cl  0  0  0  0  0  0  0  0  0  0  0  0
  126.0047  121.1593   83.2206 Cl  0  0  0  0  0  0  0  0  0  0  0  0
  125.9150  124.0681   83.2827 Cl  0  0  0  0  0  0  0  0  0  0  0  0
  120.9024  123.7750   85.8215 C   0  0  0  0  0  0  0  0  0  0  0  0
  119.5513  124.1292   85.8704 C   0  0  0  0  0  0  0  0  0  0  0  0
  114.0075  122.6257   86.6860 H   0  0  0  0  0  0  0  0  0  0  0  0
  113.9183  123.5564   85.1522 H   0  0  0  0  0  0  0  0  0  0  0  0
  113.5867  121.7909   85.1522 H   0  0  0  0  0  0  0  0  0  0  0  0
  116.0163  121.4365   87.2968 H   0  0  0  0  0  0  0  0  0  0  0  0
  115.4982  120.2682   86.0346 H   0  0  0  0  0  0  0  0  0  0  0  0
  117.1782  120.9041   86.0346 H   0  0  0  0  0  0  0  0  0  0  0  0
  116.3227  120.9516   83.7914 H   0  0  0  0  0  0  0  0  0  0  0  0
  114.8725  121.9288   83.3805 H   0  0  0  0  0  0  0  0  0  0  0  0
  116.4989  122.6913   83.3805 H   0  0  0  0  0  0  0  0  0  0  0  0
  115.7392  124.0585   86.3165 H   0  0  0  0  0  0  0  0  0  0  0  0
  118.8562  124.0449   82.5254 H   0  0  0  0  0  0  0  0  0  0  0  0
  121.2655  123.3940   82.4509 H   0  0  0  0  0  0  0  0  0  0  0  0
  123.3815  123.3546   85.5305 H   0  0  0  0  0  0  0  0  0  0  0  0
  121.4809  123.7091   86.7549 H   0  0  0  0  0  0  0  0  0  0  0  0
  119.0703  124.3474   86.8354 H   0  0  0  0  0  0  0  0  0  0  0  0
  1  2  1  0
  2  3  1  0
  2  4  1  0
  2  5  1  0
  5  6  1  0
  6  7  2  0
  6  8  2  0
  6  9  1  0
  9 10  2  0
 10 11  1  0
 11 12  2  0
 12 13  1  0
 13 14  1  0
 14 15  2  0
 14 16  1  0
 16 17  1  0
 16 18  1  0
 16 19  1  0
 12 20  1  0
 20 21  2  0
 21  9  1  0
  1 22  1  0
  1 23  1  0
  1 24  1  0
  3 25  1  0
  3 26  1  0
  3 27  1  0
  4 28  1  0
  4 29  1  0
  4 30  1  0
  5 31  1  0
 10 32  1  0
 11 33  1  0
 13 34  1  0
 20 35  1  0
 21 36  1  0
M  END
>  <loss>  (9) 
0.6154990196228027

>  <score>  (9) 
0.9794654846191406

$$$$
KGYQRGXFOKPZDO-UHFFFAOYSA-N
     RDKit          3D

 36 36  0  0  0  0  0  0  0  0999 V2000
  114.2777  122.5852   85.9921 C   0  0  0  0  0  0  0  0  0  0  0  0
  115.7440  122.3174   85.6032 C   0  0  0  0  0  0  0  0  0  0  0  0
  116.2771  121.1699   86.4672 C   0  0  0  0  0  0  0  0  0  0  0  0
  115.7846  121.9365   84.1233 C   0  0  0  0  0  0  0  0  0  0  0  0
  116.4884  123.5508   85.9173 N   0  0  0  0  0  0  0  0  0  0  0  0
  117.1482  124.6552   84.8555 S   0  0  0  0  0  6  0  0  0  0  0  0
  117.0993  125.9282   85.5434 O   0  0  0  0  0  0  0  0  0  0  0  0
  116.5470  124.4881   83.5528 O   0  0  0  0  0  0  0  0  0  0  0  0
  118.8565  124.1895   84.7623 C   0  0  0  0  0  0  0  0  0  0  0  0
  119.4857  124.0617   83.5240 C   0  0  0  0  0  0  0  0  0  0  0  0
  120.8396  123.7109   83.4650 C   0  0  0  0  0  0  0  0  0  0  0  0
  121.5725  123.5028   84.6365 C   0  0  0  0  0  0  0  0  0  0  0  0
  122.9373  123.1496   84.6671 N   0  0  0  0  0  0  0  0  0  0  0  0
  123.6905  122.5262   83.6644 C   0  0  0  0  0  0  0  0  0  0  0  0
  123.1968  121.9965   82.6685 O   0  0  0  0  0  0  0  0  0  0  0  0
  125.2180  122.5140   83.9454 C   0  0  0  0  0  0  0  0  0  0  0  0
  125.4454  122.3339   85.7088 Cl  0  0  0  0  0  0  0  0  0  0  0  0
  126.0244  121.1832   83.0880 Cl  0  0  0  0  0  0  0  0  0  0  0  0
  125.9249  124.0732   83.4204 Cl  0  0  0  0  0  0  0  0  0  0  0  0
  120.9310  123.6572   85.8748 C   0  0  0  0  0  0  0  0  0  0  0  0
  119.5786  124.0035   85.9423 C   0  0  0  0  0  0  0  0  0  0  0  0
  114.1862  122.6019   87.0881 H   0  0  0  0  0  0  0  0  0  0  0  0
  113.9612  123.5559   85.5829 H   0  0  0  0  0  0  0  0  0  0  0  0
  113.6385  121.7889   85.5829 H   0  0  0  0  0  0  0  0  0  0  0  0
  116.1582  121.4257   87.5305 H   0  0  0  0  0  0  0  0  0  0  0  0
  115.7133  120.2517   86.2458 H   0  0  0  0  0  0  0  0  0  0  0  0
  117.3424  121.0085   86.2458 H   0  0  0  0  0  0  0  0  0  0  0  0
  115.9010  120.8468   84.0282 H   0  0  0  0  0  0  0  0  0  0  0  0
  114.8480  122.2489   83.6384 H   0  0  0  0  0  0  0  0  0  0  0  0
  116.6342  122.4396   83.6384 H   0  0  0  0  0  0  0  0  0  0  0  0
  115.8424  124.1033   86.4989 H   0  0  0  0  0  0  0  0  0  0  0  0
  118.9198  124.2360   82.5970 H   0  0  0  0  0  0  0  0  0  0  0  0
  121.3311  123.5981   82.4874 H   0  0  0  0  0  0  0  0  0  0  0  0
  123.4430  123.3784   85.5347 H   0  0  0  0  0  0  0  0  0  0  0  0
  121.4995  123.5037   86.8040 H   0  0  0  0  0  0  0  0  0  0  0  0
  119.0868  124.1285   86.9183 H   0  0  0  0  0  0  0  0  0  0  0  0
  1  2  1  0
  2  3  1  0
  2  4  1  0
  2  5  1  0
  5  6  1  0
  6  7  2  0
  6  8  2  0
  6  9  1  0
  9 10  2  0
 10 11  1  0
 11 12  2  0
 12 13  1  0
 13 14  1  0
 14 15  2  0
 14 16  1  0
 16 17  1  0
 16 18  1  0
 16 19  1  0
 12 20  1  0
 20 21  2  0
 21  9  1  0
  1 22  1  0
  1 23  1  0
  1 24  1  0
  3 25  1  0
  3 26  1  0
  3 27  1  0
  4 28  1  0
  4 29  1  0
  4 30  1  0
  5 31  1  0
 10 32  1  0
 11 33  1  0
 13 34  1  0
 20 35  1  0
 21 36  1  0
M  END
>  <loss>  (10) 
0.6145772337913513

>  <score>  (10) 
0.9632149934768677

$$$$
KGYQRGXFOKPZDO-UHFFFAOYSA-N
     RDKit          3D

 36 36  0  0  0  0  0  0  0  0999 V2000
  116.0509  121.9017   83.6512 C   0  0  0  0  0  0  0  0  0  0  0  0
  115.7164  122.4735   85.0288 C   0  0  0  0  0  0  0  0  0  0  0  0
  116.0320  121.4508   86.1252 C   0  0  0  0  0  0  0  0  0  0  0  0
  114.2086  122.7864   85.0679 C   0  0  0  0  0  0  0  0  0  0  0  0
  116.4108  123.7393   85.3284 N   0  0  0  0  0  0  0  0  0  0  0  0
  117.2004  124.7577   84.2692 S   0  0  0  0  0  6  0  0  0  0  0  0
  117.1392  126.0698   84.8778 O   0  0  0  0  0  0  0  0  0  0  0  0
  116.7085  124.5333   82.9298 O   0  0  0  0  0  0  0  0  0  0  0  0
  118.8919  124.2329   84.3538 C   0  0  0  0  0  0  0  0  0  0  0  0
  119.4872  124.0469   85.6026 C   0  0  0  0  0  0  0  0  0  0  0  0
  120.8265  123.6539   85.6755 C   0  0  0  0  0  0  0  0  0  0  0  0
  121.5810  123.4527   84.5098 C   0  0  0  0  0  0  0  0  0  0  0  0
  122.9227  123.0544   84.6816 N   0  0  0  0  0  0  0  0  0  0  0  0
  123.8074  122.5608   83.7146 C   0  0  0  0  0  0  0  0  0  0  0  0
  123.4506  122.1367   82.6151 O   0  0  0  0  0  0  0  0  0  0  0  0
  125.2911  122.5451   84.1737 C   0  0  0  0  0  0  0  0  0  0  0  0
  125.9752  120.9136   83.8961 Cl  0  0  0  0  0  0  0  0  0  0  0  0
  125.4421  122.9622   85.8941 Cl  0  0  0  0  0  0  0  0  0  0  0  0
  126.1821  123.7296   83.1753 Cl  0  0  0  0  0  0  0  0  0  0  0  0
  120.9749  123.6613   83.2679 C   0  0  0  0  0  0  0  0  0  0  0  0
  119.6351  124.0586   83.1864 C   0  0  0  0  0  0  0  0  0  0  0  0
  116.6031  120.9577   83.7702 H   0  0  0  0  0  0  0  0  0  0  0  0
  115.1200  121.7144   83.0960 H   0  0  0  0  0  0  0  0  0  0  0  0
  116.6705  122.6213   83.0960 H   0  0  0  0  0  0  0  0  0  0  0  0
  115.8887  121.9152   87.1120 H   0  0  0  0  0  0  0  0  0  0  0  0
  115.3587  120.5867   86.0253 H   0  0  0  0  0  0  0  0  0  0  0  0
  117.0752  121.1163   86.0253 H   0  0  0  0  0  0  0  0  0  0  0  0
  113.8755  122.8555   86.1140 H   0  0  0  0  0  0  0  0  0  0  0  0
  114.0193  123.7429   84.5589 H   0  0  0  0  0  0  0  0  0  0  0  0
  113.6544  121.9841   84.5589 H   0  0  0  0  0  0  0  0  0  0  0  0
  115.6933  124.3308   85.7714 H   0  0  0  0  0  0  0  0  0  0  0  0
  118.9064  124.2084   86.5227 H   0  0  0  0  0  0  0  0  0  0  0  0
  121.2949  123.5005   86.6589 H   0  0  0  0  0  0  0  0  0  0  0  0
  123.2988  123.1367   85.6369 H   0  0  0  0  0  0  0  0  0  0  0  0
  121.5561  123.5119   82.3460 H   0  0  0  0  0  0  0  0  0  0  0  0
  119.1699  124.2328   82.2050 H   0  0  0  0  0  0  0  0  0  0  0  0
  1  2  1  0
  2  3  1  0
  2  4  1  0
  2  5  1  0
  5  6  1  0
  6  7  2  0
  6  8  2  0
  6  9  1  0
  9 10  2  0
 10 11  1  0
 11 12  2  0
 12 13  1  0
 13 14  1  0
 14 15  2  0
 14 16  1  0
 16 17  1  0
 16 18  1  0
 16 19  1  0
 12 20  1  0
 20 21  2  0
 21  9  1  0
  1 22  1  0
  1 23  1  0
  1 24  1  0
  3 25  1  0
  3 26  1  0
  3 27  1  0
  4 28  1  0
  4 29  1  0
  4 30  1  0
  5 31  1  0
 10 32  1  0
 11 33  1  0
 13 34  1  0
 20 35  1  0
 21 36  1  0
M  END
>  <loss>  (11) 
0.61861652135849

>  <score>  (11) 
0.9452589154243469

$$$$
KGYQRGXFOKPZDO-UHFFFAOYSA-N
     RDKit          3D

 36 36  0  0  0  0  0  0  0  0999 V2000
  116.0186  121.9134   85.6954 C   0  0  0  0  0  0  0  0  0  0  0  0
  116.0711  122.8233   86.9228 C   0  0  0  0  0  0  0  0  0  0  0  0
  116.6598  122.0716   88.1210 C   0  0  0  0  0  0  0  0  0  0  0  0
  114.6325  123.2512   87.2689 C   0  0  0  0  0  0  0  0  0  0  0  0
  116.8321  124.0672   86.7042 N   0  0  0  0  0  0  0  0  0  0  0  0
  117.1929  124.8135   85.2567 S   0  0  0  0  0  6  0  0  0  0  0  0
  117.2985  126.2245   85.5602 O   0  0  0  0  0  0  0  0  0  0  0  0
  116.2899  124.3358   84.2346 O   0  0  0  0  0  0  0  0  0  0  0  0
  118.8288  124.2451   84.8772 C   0  0  0  0  0  0  0  0  0  0  0  0
  119.7786  124.1676   85.8975 C   0  0  0  0  0  0  0  0  0  0  0  0
  121.0768  123.7326   85.6079 C   0  0  0  0  0  0  0  0  0  0  0  0
  121.4357  123.3880   84.3021 C   0  0  0  0  0  0  0  0  0  0  0  0
  122.7184  122.9417   83.9230 N   0  0  0  0  0  0  0  0  0  0  0  0
  123.8883  122.9230   84.6924 C   0  0  0  0  0  0  0  0  0  0  0  0
  123.9024  123.0519   85.9170 O   0  0  0  0  0  0  0  0  0  0  0  0
  125.1781  122.6676   83.8655 C   0  0  0  0  0  0  0  0  0  0  0  0
  126.3043  124.0413   84.0908 Cl  0  0  0  0  0  0  0  0  0  0  0  0
  124.7095  122.5719   82.1437 Cl  0  0  0  0  0  0  0  0  0  0  0  0
  125.9790  121.1620   84.3639 Cl  0  0  0  0  0  0  0  0  0  0  0  0
  120.4754  123.4919   83.2842 C   0  0  0  0  0  0  0  0  0  0  0  0
  119.1755  123.9226   83.5655 C   0  0  0  0  0  0  0  0  0  0  0  0
  115.9580  120.8639   86.0194 H   0  0  0  0  0  0  0  0  0  0  0  0
  115.1333  122.1625   85.0919 H   0  0  0  0  0  0  0  0  0  0  0  0
  116.9266  122.0590   85.0919 H   0  0  0  0  0  0  0  0  0  0  0  0
  116.3006  122.5302   89.0541 H   0  0  0  0  0  0  0  0  0  0  0  0
  116.3435  121.0186   88.0847 H   0  0  0  0  0  0  0  0  0  0  0  0
  117.7578  122.1261   88.0847 H   0  0  0  0  0  0  0  0  0  0  0  0
  114.5134  123.2866   88.3618 H   0  0  0  0  0  0  0  0  0  0  0  0
  114.4344  124.2472   86.8460 H   0  0  0  0  0  0  0  0  0  0  0  0
  113.9223  122.5254   86.8460 H   0  0  0  0  0  0  0  0  0  0  0  0
  116.3240  124.7813   87.2453 H   0  0  0  0  0  0  0  0  0  0  0  0
  119.5073  124.4477   86.9260 H   0  0  0  0  0  0  0  0  0  0  0  0
  121.8209  123.6613   86.4149 H   0  0  0  0  0  0  0  0  0  0  0  0
  122.8057  122.5851   82.9606 H   0  0  0  0  0  0  0  0  0  0  0  0
  120.7490  123.2310   82.2512 H   0  0  0  0  0  0  0  0  0  0  0  0
  118.4324  124.0065   82.7589 H   0  0  0  0  0  0  0  0  0  0  0  0
  1  2  1  0
  2  3  1  0
  2  4  1  0
  2  5  1  0
  5  6  1  0
  6  7  2  0
  6  8  2  0
  6  9  1  0
  9 10  2  0
 10 11  1  0
 11 12  2  0
 12 13  1  0
 13 14  1  0
 14 15  2  0
 14 16  1  0
 16 17  1  0
 16 18  1  0
 16 19  1  0
 12 20  1  0
 20 21  2  0
 21  9  1  0
  1 22  1  0
  1 23  1  0
  1 24  1  0
  3 25  1  0
  3 26  1  0
  3 27  1  0
  4 28  1  0
  4 29  1  0
  4 30  1  0
  5 31  1  0
 10 32  1  0
 11 33  1  0
 13 34  1  0
 20 35  1  0
 21 36  1  0
M  END
>  <loss>  (12) 
0.6450120806694031

>  <score>  (12) 
-0.32212549448013306

$$$$
KGYQRGXFOKPZDO-UHFFFAOYSA-N
     RDKit          3D

 36 36  0  0  0  0  0  0  0  0999 V2000
  114.5652  123.3147   86.9563 C   0  0  0  0  0  0  0  0  0  0  0  0
  116.0918  123.1608   86.8195 C   0  0  0  0  0  0  0  0  0  0  0  0
  116.4566  121.6895   87.0427 C   0  0  0  0  0  0  0  0  0  0  0  0
  116.7581  124.0433   87.8749 C   0  0  0  0  0  0  0  0  0  0  0  0
  116.4248  123.5410   85.4344 N   0  0  0  0  0  0  0  0  0  0  0  0
  117.2668  124.8810   84.9073 S   0  0  0  0  0  6  0  0  0  0  0  0
  116.7284  125.1844   83.5981 O   0  0  0  0  0  0  0  0  0  0  0  0
  117.2890  125.8768   85.9534 O   0  0  0  0  0  0  0  0  0  0  0  0
  118.9149  124.2775   84.6555 C   0  0  0  0  0  0  0  0  0  0  0  0
  119.3135  123.8959   83.3734 C   0  0  0  0  0  0  0  0  0  0  0  0
  120.6180  123.4395   83.1650 C   0  0  0  0  0  0  0  0  0  0  0  0
  121.5329  123.3686   84.2265 C   0  0  0  0  0  0  0  0  0  0  0  0
  122.8249  122.8933   83.9217 N   0  0  0  0  0  0  0  0  0  0  0  0
  123.9583  122.8849   84.7444 C   0  0  0  0  0  0  0  0  0  0  0  0
  123.9229  123.0887   85.9582 O   0  0  0  0  0  0  0  0  0  0  0  0
  125.2738  122.5405   83.9941 C   0  0  0  0  0  0  0  0  0  0  0  0
  124.8456  121.5403   82.5762 Cl  0  0  0  0  0  0  0  0  0  0  0  0
  126.4062  121.6594   85.0417 Cl  0  0  0  0  0  0  0  0  0  0  0  0
  126.0431  124.0561   83.4302 Cl  0  0  0  0  0  0  0  0  0  0  0  0
  121.1230  123.7721   85.5001 C   0  0  0  0  0  0  0  0  0  0  0  0
  119.8193  124.2339   85.7164 C   0  0  0  0  0  0  0  0  0  0  0  0
  114.2934  123.3421   88.0218 H   0  0  0  0  0  0  0  0  0  0  0  0
  114.2461  124.2496   86.4723 H   0  0  0  0  0  0  0  0  0  0  0  0
  114.0659  122.4623   86.4723 H   0  0  0  0  0  0  0  0  0  0  0  0
  116.5075  121.4840   88.1221 H   0  0  0  0  0  0  0  0  0  0  0  0
  115.6903  121.0479   86.5830 H   0  0  0  0  0  0  0  0  0  0  0  0
  117.4338  121.4802   86.5830 H   0  0  0  0  0  0  0  0  0  0  0  0
  116.4865  123.6836   88.8783 H   0  0  0  0  0  0  0  0  0  0  0  0
  117.8505  123.9995   87.7529 H   0  0  0  0  0  0  0  0  0  0  0  0
  116.4169  125.0819   87.7529 H   0  0  0  0  0  0  0  0  0  0  0  0
  116.9551  122.7389   85.0651 H   0  0  0  0  0  0  0  0  0  0  0  0
  118.6060  123.9539   82.5330 H   0  0  0  0  0  0  0  0  0  0  0  0
  120.9314  123.1322   82.1564 H   0  0  0  0  0  0  0  0  0  0  0  0
  122.9509  122.5039   82.9765 H   0  0  0  0  0  0  0  0  0  0  0  0
  121.8313  123.7263   86.3405 H   0  0  0  0  0  0  0  0  0  0  0  0
  119.5092  124.5614   86.7197 H   0  0  0  0  0  0  0  0  0  0  0  0
  1  2  1  0
  2  3  1  0
  2  4  1  0
  2  5  1  0
  5  6  1  0
  6  7  2  0
  6  8  2  0
  6  9  1  0
  9 10  2  0
 10 11  1  0
 11 12  2  0
 12 13  1  0
 13 14  1  0
 14 15  2  0
 14 16  1  0
 16 17  1  0
 16 18  1  0
 16 19  1  0
 12 20  1  0
 20 21  2  0
 21  9  1  0
  1 22  1  0
  1 23  1  0
  1 24  1  0
  3 25  1  0
  3 26  1  0
  3 27  1  0
  4 28  1  0
  4 29  1  0
  4 30  1  0
  5 31  1  0
 10 32  1  0
 11 33  1  0
 13 34  1  0
 20 35  1  0
 21 36  1  0
M  END
>  <loss>  (13) 
0.6133307814598083

>  <score>  (13) 
-0.9479041695594788

$$$$
KGYQRGXFOKPZDO-UHFFFAOYSA-N
     RDKit          3D

 36 36  0  0  0  0  0  0  0  0999 V2000
  116.0215  121.8902   85.9886 C   0  0  0  0  0  0  0  0  0  0  0  0
  116.1516  122.8812   87.1454 C   0  0  0  0  0  0  0  0  0  0  0  0
  116.8419  122.2187   88.3420 C   0  0  0  0  0  0  0  0  0  0  0  0
  114.7364  123.3145   87.5718 C   0  0  0  0  0  0  0  0  0  0  0  0
  116.8728  124.1164   86.7872 N   0  0  0  0  0  0  0  0  0  0  0  0
  117.1508  124.7432   85.2666 S   0  0  0  0  0  6  0  0  0  0  0  0
  117.2106  126.1786   85.4406 O   0  0  0  0  0  0  0  0  0  0  0  0
  116.2313  124.1432   84.3271 O   0  0  0  0  0  0  0  0  0  0  0  0
  118.7933  124.2037   84.8740 C   0  0  0  0  0  0  0  0  0  0  0  0
  119.7658  124.1916   85.8757 C   0  0  0  0  0  0  0  0  0  0  0  0
  121.0691  123.7799   85.5751 C   0  0  0  0  0  0  0  0  0  0  0  0
  121.4102  123.3938   84.2762 C   0  0  0  0  0  0  0  0  0  0  0  0
  122.6965  122.9669   83.8869 N   0  0  0  0  0  0  0  0  0  0  0  0
  123.8771  122.9864   84.6397 C   0  0  0  0  0  0  0  0  0  0  0  0
  123.9053  123.1326   85.8622 O   0  0  0  0  0  0  0  0  0  0  0  0
  125.1609  122.7502   83.7979 C   0  0  0  0  0  0  0  0  0  0  0  0
  126.2223  124.1866   83.9260 Cl  0  0  0  0  0  0  0  0  0  0  0  0
  124.6629  122.5410   82.0946 Cl  0  0  0  0  0  0  0  0  0  0  0  0
  126.0451  121.3134   84.3554 Cl  0  0  0  0  0  0  0  0  0  0  0  0
  120.4266  123.4322   83.2761 C   0  0  0  0  0  0  0  0  0  0  0  0
  119.1216  123.8392   83.5687 C   0  0  0  0  0  0  0  0  0  0  0  0
  115.8882  120.8745   86.3891 H   0  0  0  0  0  0  0  0  0  0  0  0
  115.1509  122.1585   85.3721 H   0  0  0  0  0  0  0  0  0  0  0  0
  116.9319  121.9247   85.3721 H   0  0  0  0  0  0  0  0  0  0  0  0
  116.4227  122.6210   89.2761 H   0  0  0  0  0  0  0  0  0  0  0  0
  116.6774  121.1317   88.3046 H   0  0  0  0  0  0  0  0  0  0  0  0
  117.9212  122.4277   88.3046 H   0  0  0  0  0  0  0  0  0  0  0  0
  114.6740  123.3336   88.6698 H   0  0  0  0  0  0  0  0  0  0  0  0
  114.5252  124.3185   87.1750 H   0  0  0  0  0  0  0  0  0  0  0  0
  113.9993  122.6009   87.1750 H   0  0  0  0  0  0  0  0  0  0  0  0
  116.3730  124.8641   87.2893 H   0  0  0  0  0  0  0  0  0  0  0  0
  119.5082  124.5046   86.8983 H   0  0  0  0  0  0  0  0  0  0  0  0
  121.8313  123.7601   86.3680 H   0  0  0  0  0  0  0  0  0  0  0  0
  122.7777  122.5945   82.9301 H   0  0  0  0  0  0  0  0  0  0  0  0
  120.6858  123.1382   82.2483 H   0  0  0  0  0  0  0  0  0  0  0  0
  118.3599  123.8716   82.7757 H   0  0  0  0  0  0  0  0  0  0  0  0
  1  2  1  0
  2  3  1  0
  2  4  1  0
  2  5  1  0
  5  6  1  0
  6  7  2  0
  6  8  2  0
  6  9  1  0
  9 10  2  0
 10 11  1  0
 11 12  2  0
 12 13  1  0
 13 14  1  0
 14 15  2  0
 14 16  1  0
 16 17  1  0
 16 18  1  0
 16 19  1  0
 12 20  1  0
 20 21  2  0
 21  9  1  0
  1 22  1  0
  1 23  1  0
  1 24  1  0
  3 25  1  0
  3 26  1  0
  3 27  1  0
  4 28  1  0
  4 29  1  0
  4 30  1  0
  5 31  1  0
 10 32  1  0
 11 33  1  0
 13 34  1  0
 20 35  1  0
 21 36  1  0
M  END
>  <loss>  (14) 
0.645514965057373

>  <score>  (14) 
-1.5153207778930664

$$$$
KGYQRGXFOKPZDO-UHFFFAOYSA-N
     RDKit          3D

 36 36  0  0  0  0  0  0  0  0999 V2000
  116.0088  122.6088   86.4270 C   0  0  0  0  0  0  0  0  0  0  0  0
  116.3882  123.7977   87.3101 C   0  0  0  0  0  0  0  0  0  0  0  0
  117.1906  123.3255   88.5269 C   0  0  0  0  0  0  0  0  0  0  0  0
  115.0914  124.4653   87.8048 C   0  0  0  0  0  0  0  0  0  0  0  0
  117.1474  124.8431   86.5995 N   0  0  0  0  0  0  0  0  0  0  0  0
  117.3843  125.0078   84.9566 S   0  0  0  0  0  6  0  0  0  0  0  0
  117.4707  126.4320   84.7152 O   0  0  0  0  0  0  0  0  0  0  0  0
  116.4258  124.1882   84.2511 O   0  0  0  0  0  0  0  0  0  0  0  0
  119.0051  124.3412   84.6881 C   0  0  0  0  0  0  0  0  0  0  0  0
  119.9064  124.2876   85.7529 C   0  0  0  0  0  0  0  0  0  0  0  0
  121.1929  123.7753   85.5503 C   0  0  0  0  0  0  0  0  0  0  0  0
  121.5890  123.3295   84.2866 C   0  0  0  0  0  0  0  0  0  0  0  0
  122.8631  122.8008   83.9948 N   0  0  0  0  0  0  0  0  0  0  0  0
  124.0231  122.8621   84.7770 C   0  0  0  0  0  0  0  0  0  0  0  0
  124.0213  123.1134   85.9826 O   0  0  0  0  0  0  0  0  0  0  0  0
  125.3237  122.5281   83.9963 C   0  0  0  0  0  0  0  0  0  0  0  0
  124.9216  121.4767   82.6038 Cl  0  0  0  0  0  0  0  0  0  0  0  0
  126.4098  121.6414   85.1042 Cl  0  0  0  0  0  0  0  0  0  0  0  0
  126.1229  124.0023   83.4093 Cl  0  0  0  0  0  0  0  0  0  0  0  0
  120.6783  123.4101   83.2220 C   0  0  0  0  0  0  0  0  0  0  0  0
  119.3903  123.9176   83.4166 C   0  0  0  0  0  0  0  0  0  0  0  0
  115.7357  121.7530   87.0618 H   0  0  0  0  0  0  0  0  0  0  0  0
  115.1533  122.8820   85.7919 H   0  0  0  0  0  0  0  0  0  0  0  0
  116.8645  122.3359   85.7919 H   0  0  0  0  0  0  0  0  0  0  0  0
  116.6728  123.6302   89.4483 H   0  0  0  0  0  0  0  0  0  0  0  0
  117.2820  122.2296   88.5030 H   0  0  0  0  0  0  0  0  0  0  0  0
  118.1931  123.7777   88.5030 H   0  0  0  0  0  0  0  0  0  0  0  0
  115.0788  124.4717   88.9047 H   0  0  0  0  0  0  0  0  0  0  0  0
  115.0456  125.4990   87.4315 H   0  0  0  0  0  0  0  0  0  0  0  0
  114.2235  123.9019   87.4315 H   0  0  0  0  0  0  0  0  0  0  0  0
  116.7050  125.7273   86.8884 H   0  0  0  0  0  0  0  0  0  0  0  0
  119.6062  124.6469   86.7483 H   0  0  0  0  0  0  0  0  0  0  0  0
  121.8981  123.7233   86.3929 H   0  0  0  0  0  0  0  0  0  0  0  0
  122.9518  122.3083   83.0945 H   0  0  0  0  0  0  0  0  0  0  0  0
  120.9820  123.0696   82.2211 H   0  0  0  0  0  0  0  0  0  0  0  0
  118.6866  123.9822   82.5736 H   0  0  0  0  0  0  0  0  0  0  0  0
  1  2  1  0
  2  3  1  0
  2  4  1  0
  2  5  1  0
  5  6  1  0
  6  7  2  0
  6  8  2  0
  6  9  1  0
  9 10  2  0
 10 11  1  0
 11 12  2  0
 12 13  1  0
 13 14  1  0
 14 15  2  0
 14 16  1  0
 16 17  1  0
 16 18  1  0
 16 19  1  0
 12 20  1  0
 20 21  2  0
 21  9  1  0
  1 22  1  0
  1 23  1  0
  1 24  1  0
  3 25  1  0
  3 26  1  0
  3 27  1  0
  4 28  1  0
  4 29  1  0
  4 30  1  0
  5 31  1  0
 10 32  1  0
 11 33  1  0
 13 34  1  0
 20 35  1  0
 21 36  1  0
M  END
>  <loss>  (15) 
0.6144397854804993

>  <score>  (15) 
-4.227939605712891

$$$$
KGYQRGXFOKPZDO-UHFFFAOYSA-N
     RDKit          3D

 36 36  0  0  0  0  0  0  0  0999 V2000
  116.0579  122.2858   86.0252 C   0  0  0  0  0  0  0  0  0  0  0  0
  116.2332  123.3868   87.0712 C   0  0  0  0  0  0  0  0  0  0  0  0
  116.8826  122.8218   88.3387 C   0  0  0  0  0  0  0  0  0  0  0  0
  114.8401  123.9345   87.4343 C   0  0  0  0  0  0  0  0  0  0  0  0
  117.0189  124.5384   86.5910 N   0  0  0  0  0  0  0  0  0  0  0  0
  117.3497  124.9751   85.0155 S   0  0  0  0  0  6  0  0  0  0  0  0
  117.4689  126.4173   85.0266 O   0  0  0  0  0  0  0  0  0  0  0  0
  116.4212  124.3100   84.1303 O   0  0  0  0  0  0  0  0  0  0  0  0
  118.9738  124.3270   84.7228 C   0  0  0  0  0  0  0  0  0  0  0  0
  119.8554  124.1837   85.7958 C   0  0  0  0  0  0  0  0  0  0  0  0
  121.1443  123.6852   85.5754 C   0  0  0  0  0  0  0  0  0  0  0  0
  121.5626  123.3424   84.2869 C   0  0  0  0  0  0  0  0  0  0  0  0
  122.8408  122.8348   83.9760 N   0  0  0  0  0  0  0  0  0  0  0  0
  124.0014  122.8803   84.7582 C   0  0  0  0  0  0  0  0  0  0  0  0
  124.0017  123.1179   85.9666 O   0  0  0  0  0  0  0  0  0  0  0  0
  125.2996  122.5472   83.9732 C   0  0  0  0  0  0  0  0  0  0  0  0
  124.8834  121.5625   82.5368 Cl  0  0  0  0  0  0  0  0  0  0  0  0
  126.3564  121.5913   85.0513 Cl  0  0  0  0  0  0  0  0  0  0  0  0
  126.1374  124.0246   83.4514 Cl  0  0  0  0  0  0  0  0  0  0  0  0
  120.6716  123.5126   83.2161 C   0  0  0  0  0  0  0  0  0  0  0  0
  119.3813  124.0070   83.4282 C   0  0  0  0  0  0  0  0  0  0  0  0
  115.9042  121.3209   86.5307 H   0  0  0  0  0  0  0  0  0  0  0  0
  115.1846  122.5133   85.3961 H   0  0  0  0  0  0  0  0  0  0  0  0
  116.9586  122.2308   85.3961 H   0  0  0  0  0  0  0  0  0  0  0  0
  116.3907  123.2498   89.2246 H   0  0  0  0  0  0  0  0  0  0  0  0
  116.7720  121.7274   88.3507 H   0  0  0  0  0  0  0  0  0  0  0  0
  117.9511  123.0826   88.3507 H   0  0  0  0  0  0  0  0  0  0  0  0
  114.7360  123.9754   88.5286 H   0  0  0  0  0  0  0  0  0  0  0  0
  114.7233  124.9454   87.0168 H   0  0  0  0  0  0  0  0  0  0  0  0
  114.0661  123.2737   87.0168 H   0  0  0  0  0  0  0  0  0  0  0  0
  116.5486  125.3607   86.9954 H   0  0  0  0  0  0  0  0  0  0  0  0
  119.5378  124.4618   86.8116 H   0  0  0  0  0  0  0  0  0  0  0  0
  121.8340  123.5623   86.4235 H   0  0  0  0  0  0  0  0  0  0  0  0
  122.9322  122.3732   83.0597 H   0  0  0  0  0  0  0  0  0  0  0  0
  120.9928  123.2536   82.1964 H   0  0  0  0  0  0  0  0  0  0  0  0
  118.6932  124.1425   82.5807 H   0  0  0  0  0  0  0  0  0  0  0  0
  1  2  1  0
  2  3  1  0
  2  4  1  0
  2  5  1  0
  5  6  1  0
  6  7  2  0
  6  8  2  0
  6  9  1  0
  9 10  2  0
 10 11  1  0
 11 12  2  0
 12 13  1  0
 13 14  1  0
 14 15  2  0
 14 16  1  0
 16 17  1  0
 16 18  1  0
 16 19  1  0
 12 20  1  0
 20 21  2  0
 21  9  1  0
  1 22  1  0
  1 23  1  0
  1 24  1  0
  3 25  1  0
  3 26  1  0
  3 27  1  0
  4 28  1  0
  4 29  1  0
  4 30  1  0
  5 31  1  0
 10 32  1  0
 11 33  1  0
 13 34  1  0
 20 35  1  0
 21 36  1  0
M  END
>  <loss>  (16) 
0.6093159914016724

>  <score>  (16) 
-5.763437271118164

$$$$
KGYQRGXFOKPZDO-UHFFFAOYSA-N
     RDKit          3D

 36 36  0  0  0  0  0  0  0  0999 V2000
  116.4837  121.5259   87.1867 C   0  0  0  0  0  0  0  0  0  0  0  0
  116.6887  122.6990   88.1453 C   0  0  0  0  0  0  0  0  0  0  0  0
  117.5920  122.2851   89.3116 C   0  0  0  0  0  0  0  0  0  0  0  0
  115.3148  123.1085   88.7084 C   0  0  0  0  0  0  0  0  0  0  0  0
  117.2461  123.9008   87.4980 N   0  0  0  0  0  0  0  0  0  0  0  0
  117.1752  124.3306   85.8878 S   0  0  0  0  0  6  0  0  0  0  0  0
  116.9879  125.7655   85.8742 O   0  0  0  0  0  0  0  0  0  0  0  0
  116.2580  123.4519   85.1987 O   0  0  0  0  0  0  0  0  0  0  0  0
  118.8146  124.0201   85.2884 C   0  0  0  0  0  0  0  0  0  0  0  0
  119.8982  124.1675   86.1563 C   0  0  0  0  0  0  0  0  0  0  0  0
  121.1980  123.9376   85.6915 C   0  0  0  0  0  0  0  0  0  0  0  0
  121.4228  123.5751   84.3607 C   0  0  0  0  0  0  0  0  0  0  0  0
  122.6968  123.3258   83.8103 N   0  0  0  0  0  0  0  0  0  0  0  0
  123.7178  122.5190   84.3275 C   0  0  0  0  0  0  0  0  0  0  0  0
  123.5350  121.6477   85.1783 O   0  0  0  0  0  0  0  0  0  0  0  0
  125.1089  122.7825   83.6888 C   0  0  0  0  0  0  0  0  0  0  0  0
  125.5365  124.5085   83.8990 Cl  0  0  0  0  0  0  0  0  0  0  0  0
  124.9831  122.4196   81.9436 Cl  0  0  0  0  0  0  0  0  0  0  0  0
  126.3651  121.7700   84.4330 Cl  0  0  0  0  0  0  0  0  0  0  0  0
  120.3246  123.4522   83.4958 C   0  0  0  0  0  0  0  0  0  0  0  0
  119.0228  123.6770   83.9529 C   0  0  0  0  0  0  0  0  0  0  0  0
  116.3226  120.6040   87.7646 H   0  0  0  0  0  0  0  0  0  0  0  0
  115.6058  121.7195   86.5528 H   0  0  0  0  0  0  0  0  0  0  0  0
  117.3753  121.4103   86.5528 H   0  0  0  0  0  0  0  0  0  0  0  0
  117.0905  122.5149   90.2633 H   0  0  0  0  0  0  0  0  0  0  0  0
  117.7928  121.2051   89.2544 H   0  0  0  0  0  0  0  0  0  0  0  0
  118.5412  122.8380   89.2544 H   0  0  0  0  0  0  0  0  0  0  0  0
  115.3511  123.0977   89.8078 H   0  0  0  0  0  0  0  0  0  0  0  0
  115.0626  124.1209   88.3598 H   0  0  0  0  0  0  0  0  0  0  0  0
  114.5495  122.3994   88.3598 H   0  0  0  0  0  0  0  0  0  0  0  0
  116.8116  124.6901   87.9971 H   0  0  0  0  0  0  0  0  0  0  0  0
  119.7308  124.4634   87.2024 H   0  0  0  0  0  0  0  0  0  0  0  0
  122.0499  124.0431   86.3794 H   0  0  0  0  0  0  0  0  0  0  0  0
  122.9018  123.7954   82.9168 H   0  0  0  0  0  0  0  0  0  0  0  0
  120.4903  123.1753   82.4442 H   0  0  0  0  0  0  0  0  0  0  0  0
  118.1696  123.5840   83.2648 H   0  0  0  0  0  0  0  0  0  0  0  0
  1  2  1  0
  2  3  1  0
  2  4  1  0
  2  5  1  0
  5  6  1  0
  6  7  2  0
  6  8  2  0
  6  9  1  0
  9 10  2  0
 10 11  1  0
 11 12  2  0
 12 13  1  0
 13 14  1  0
 14 15  2  0
 14 16  1  0
 16 17  1  0
 16 18  1  0
 16 19  1  0
 12 20  1  0
 20 21  2  0
 21  9  1  0
  1 22  1  0
  1 23  1  0
  1 24  1  0
  3 25  1  0
  3 26  1  0
  3 27  1  0
  4 28  1  0
  4 29  1  0
  4 30  1  0
  5 31  1  0
 10 32  1  0
 11 33  1  0
 13 34  1  0
 20 35  1  0
 21 36  1  0
M  END
>  <loss>  (17) 
0.6615138649940491

>  <score>  (17) 
-11.017120361328125

$$$$
KGYQRGXFOKPZDO-UHFFFAOYSA-N
     RDKit          3D

 36 36  0  0  0  0  0  0  0  0999 V2000
  116.1691  128.3523   86.0880 C   0  0  0  0  0  0  0  0  0  0  0  0
  117.4953  127.6883   85.6720 C   0  0  0  0  0  0  0  0  0  0  0  0
  118.6457  128.4036   86.3879 C   0  0  0  0  0  0  0  0  0  0  0  0
  117.6426  127.8220   84.1563 C   0  0  0  0  0  0  0  0  0  0  0  0
  117.4243  126.2914   86.1385 N   0  0  0  0  0  0  0  0  0  0  0  0
  117.2990  124.9035   85.2217 S   0  0  0  0  0  6  0  0  0  0  0  0
  116.6350  123.9382   86.0720 O   0  0  0  0  0  0  0  0  0  0  0  0
  116.7731  125.2347   83.9177 O   0  0  0  0  0  0  0  0  0  0  0  0
  118.9765  124.3582   85.0415 C   0  0  0  0  0  0  0  0  0  0  0  0
  119.7273  124.0717   86.1828 C   0  0  0  0  0  0  0  0  0  0  0  0
  121.0433  123.6210   86.0462 C   0  0  0  0  0  0  0  0  0  0  0  0
  121.6148  123.4455   84.7769 C   0  0  0  0  0  0  0  0  0  0  0  0
  122.9487  122.9900   84.7377 N   0  0  0  0  0  0  0  0  0  0  0  0
  123.6695  122.5229   83.6314 C   0  0  0  0  0  0  0  0  0  0  0  0
  123.1516  122.2260   82.5544 O   0  0  0  0  0  0  0  0  0  0  0  0
  125.2037  122.4603   83.8651 C   0  0  0  0  0  0  0  0  0  0  0  0
  125.4771  122.1542   85.6045 Cl  0  0  0  0  0  0  0  0  0  0  0  0
  125.9957  123.9752   83.3811 Cl  0  0  0  0  0  0  0  0  0  0  0  0
  125.8878  121.1036   82.9175 Cl  0  0  0  0  0  0  0  0  0  0  0  0
  120.8431  123.7192   83.6444 C   0  0  0  0  0  0  0  0  0  0  0  0
  119.5231  124.1673   83.7725 C   0  0  0  0  0  0  0  0  0  0  0  0
  116.1039  128.3849   87.1856 H   0  0  0  0  0  0  0  0  0  0  0  0
  116.1302  129.3761   85.6878 H   0  0  0  0  0  0  0  0  0  0  0  0
  115.3261  127.7699   85.6878 H   0  0  0  0  0  0  0  0  0  0  0  0
  118.5095  128.3189   87.4761 H   0  0  0  0  0  0  0  0  0  0  0  0
  119.6010  127.9400   86.1007 H   0  0  0  0  0  0  0  0  0  0  0  0
  118.6525  129.4655   86.1007 H   0  0  0  0  0  0  0  0  0  0  0  0
  118.4392  128.5454   83.9278 H   0  0  0  0  0  0  0  0  0  0  0  0
  117.9011  126.8436   83.7253 H   0  0  0  0  0  0  0  0  0  0  0  0
  116.6935  128.1734   83.7253 H   0  0  0  0  0  0  0  0  0  0  0  0
  118.2813  126.1591   86.6944 H   0  0  0  0  0  0  0  0  0  0  0  0
  119.2865  124.1996   87.1824 H   0  0  0  0  0  0  0  0  0  0  0  0
  121.6382  123.4013   86.9449 H   0  0  0  0  0  0  0  0  0  0  0  0
  123.4561  123.0024   85.6340 H   0  0  0  0  0  0  0  0  0  0  0  0
  121.2770  123.5812   82.6430 H   0  0  0  0  0  0  0  0  0  0  0  0
  118.9189  124.3681   82.8755 H   0  0  0  0  0  0  0  0  0  0  0  0
  1  2  1  0
  2  3  1  0
  2  4  1  0
  2  5  1  0
  5  6  1  0
  6  7  2  0
  6  8  2  0
  6  9  1  0
  9 10  2  0
 10 11  1  0
 11 12  2  0
 12 13  1  0
 13 14  1  0
 14 15  2  0
 14 16  1  0
 16 17  1  0
 16 18  1  0
 16 19  1  0
 12 20  1  0
 20 21  2  0
 21  9  1  0
  1 22  1  0
  1 23  1  0
  1 24  1  0
  3 25  1  0
  3 26  1  0
  3 27  1  0
  4 28  1  0
  4 29  1  0
  4 30  1  0
  5 31  1  0
 10 32  1  0
 11 33  1  0
 13 34  1  0
 20 35  1  0
 21 36  1  0
M  END
>  <loss>  (18) 
0.6016448140144348

>  <score>  (18) 
-12.347452163696289

$$$$
KGYQRGXFOKPZDO-UHFFFAOYSA-N
     RDKit          3D

 36 36  0  0  0  0  0  0  0  0999 V2000
  116.0603  128.2717   85.9227 C   0  0  0  0  0  0  0  0  0  0  0  0
  117.4348  127.6512   85.6086 C   0  0  0  0  0  0  0  0  0  0  0  0
  118.4952  128.3549   86.4618 C   0  0  0  0  0  0  0  0  0  0  0  0
  117.7232  127.8547   84.1213 C   0  0  0  0  0  0  0  0  0  0  0  0
  117.3509  126.2339   86.0065 N   0  0  0  0  0  0  0  0  0  0  0  0
  117.2679  124.8900   85.0219 S   0  0  0  0  0  6  0  0  0  0  0  0
  116.5664  123.8876   85.7958 O   0  0  0  0  0  0  0  0  0  0  0  0
  116.8017  125.2818   83.7120 O   0  0  0  0  0  0  0  0  0  0  0  0
  118.9521  124.3508   84.8930 C   0  0  0  0  0  0  0  0  0  0  0  0
  119.6503  124.0104   86.0528 C   0  0  0  0  0  0  0  0  0  0  0  0
  120.9713  123.5643   85.9554 C   0  0  0  0  0  0  0  0  0  0  0  0
  121.6002  123.4468   84.7066 C   0  0  0  0  0  0  0  0  0  0  0  0
  122.9346  122.9914   84.7070 N   0  0  0  0  0  0  0  0  0  0  0  0
  123.6770  122.4923   83.6294 C   0  0  0  0  0  0  0  0  0  0  0  0
  123.1804  122.1636   82.5516 O   0  0  0  0  0  0  0  0  0  0  0  0
  125.2063  122.4372   83.8949 C   0  0  0  0  0  0  0  0  0  0  0  0
  125.4450  122.1597   85.6442 Cl  0  0  0  0  0  0  0  0  0  0  0  0
  126.0046  123.9461   83.4027 Cl  0  0  0  0  0  0  0  0  0  0  0  0
  125.9123  121.0671   82.9834 Cl  0  0  0  0  0  0  0  0  0  0  0  0
  120.8807  123.7740   83.5541 C   0  0  0  0  0  0  0  0  0  0  0  0
  119.5560  124.2179   83.6428 C   0  0  0  0  0  0  0  0  0  0  0  0
  115.9259  128.3324   87.0127 H   0  0  0  0  0  0  0  0  0  0  0  0
  116.0064  129.2815   85.4898 H   0  0  0  0  0  0  0  0  0  0  0  0
  115.2672  127.6443   85.4898 H   0  0  0  0  0  0  0  0  0  0  0  0
  118.2678  128.2040   87.5274 H   0  0  0  0  0  0  0  0  0  0  0  0
  119.4862  127.9347   86.2352 H   0  0  0  0  0  0  0  0  0  0  0  0
  118.4929  129.4313   86.2352 H   0  0  0  0  0  0  0  0  0  0  0  0
  118.6168  128.4853   84.0040 H   0  0  0  0  0  0  0  0  0  0  0  0
  117.8980  126.8788   83.6448 H   0  0  0  0  0  0  0  0  0  0  0  0
  116.8622  128.3464   83.6448 H   0  0  0  0  0  0  0  0  0  0  0  0
  118.1855  126.0777   86.5896 H   0  0  0  0  0  0  0  0  0  0  0  0
  119.1644  124.0926   87.0362 H   0  0  0  0  0  0  0  0  0  0  0  0
  121.5249  123.3021   86.8691 H   0  0  0  0  0  0  0  0  0  0  0  0
  123.4244  123.0308   85.6123 H   0  0  0  0  0  0  0  0  0  0  0  0
  121.3597  123.6820   82.5682 H   0  0  0  0  0  0  0  0  0  0  0  0
  118.9932  124.4612   82.7295 H   0  0  0  0  0  0  0  0  0  0  0  0
  1  2  1  0
  2  3  1  0
  2  4  1  0
  2  5  1  0
  5  6  1  0
  6  7  2  0
  6  8  2  0
  6  9  1  0
  9 10  2  0
 10 11  1  0
 11 12  2  0
 12 13  1  0
 13 14  1  0
 14 15  2  0
 14 16  1  0
 16 17  1  0
 16 18  1  0
 16 19  1  0
 12 20  1  0
 20 21  2  0
 21  9  1  0
  1 22  1  0
  1 23  1  0
  1 24  1  0
  3 25  1  0
  3 26  1  0
  3 27  1  0
  4 28  1  0
  4 29  1  0
  4 30  1  0
  5 31  1  0
 10 32  1  0
 11 33  1  0
 13 34  1  0
 20 35  1  0
 21 36  1  0
M  END
>  <loss>  (19) 
0.6035156846046448

>  <score>  (19) 
-12.641054153442383

$$$$
KGYQRGXFOKPZDO-UHFFFAOYSA-N
     RDKit          3D

 36 36  0  0  0  0  0  0  0  0999 V2000
  116.0479  128.3083   85.7886 C   0  0  0  0  0  0  0  0  0  0  0  0
  117.4158  127.6838   85.4543 C   0  0  0  0  0  0  0  0  0  0  0  0
  118.5000  128.4367   86.2322 C   0  0  0  0  0  0  0  0  0  0  0  0
  117.6474  127.8165   83.9492 C   0  0  0  0  0  0  0  0  0  0  0  0
  117.3601  126.2871   85.9235 N   0  0  0  0  0  0  0  0  0  0  0  0
  117.2652  124.8954   85.0089 S   0  0  0  0  0  6  0  0  0  0  0  0
  116.5724  123.9339   85.8403 O   0  0  0  0  0  0  0  0  0  0  0  0
  116.7841  125.2212   83.6864 O   0  0  0  0  0  0  0  0  0  0  0  0
  118.9476  124.3488   84.8879 C   0  0  0  0  0  0  0  0  0  0  0  0
  119.6602  124.0699   86.0554 C   0  0  0  0  0  0  0  0  0  0  0  0
  120.9798  123.6183   85.9654 C   0  0  0  0  0  0  0  0  0  0  0  0
  121.5930  123.4342   84.7169 C   0  0  0  0  0  0  0  0  0  0  0  0
  122.9274  122.9784   84.7249 N   0  0  0  0  0  0  0  0  0  0  0  0
  123.6891  122.5182   83.6435 C   0  0  0  0  0  0  0  0  0  0  0  0
  123.2107  122.2183   82.5493 O   0  0  0  0  0  0  0  0  0  0  0  0
  125.2149  122.4676   83.9293 C   0  0  0  0  0  0  0  0  0  0  0  0
  125.4319  122.2622   85.6913 Cl  0  0  0  0  0  0  0  0  0  0  0  0
  126.0263  123.9511   83.3843 Cl  0  0  0  0  0  0  0  0  0  0  0  0
  125.9249  121.0576   83.0840 Cl  0  0  0  0  0  0  0  0  0  0  0  0
  120.8593  123.7003   83.5577 C   0  0  0  0  0  0  0  0  0  0  0  0
  119.5359  124.1493   83.6391 C   0  0  0  0  0  0  0  0  0  0  0  0
  115.9270  128.3635   86.8805 H   0  0  0  0  0  0  0  0  0  0  0  0
  115.9929  129.3207   85.3619 H   0  0  0  0  0  0  0  0  0  0  0  0
  115.2469  127.6867   85.3619 H   0  0  0  0  0  0  0  0  0  0  0  0
  118.3270  128.3166   87.3119 H   0  0  0  0  0  0  0  0  0  0  0  0
  119.4880  128.0294   85.9717 H   0  0  0  0  0  0  0  0  0  0  0  0
  118.4634  129.5048   85.9717 H   0  0  0  0  0  0  0  0  0  0  0  0
  118.5892  128.3556   83.7692 H   0  0  0  0  0  0  0  0  0  0  0  0
  117.7061  126.8151   83.4976 H   0  0  0  0  0  0  0  0  0  0  0  0
  116.8137  128.3740   83.4976 H   0  0  0  0  0  0  0  0  0  0  0  0
  118.2127  126.1688   86.4892 H   0  0  0  0  0  0  0  0  0  0  0  0
  119.1866  124.2046   87.0390 H   0  0  0  0  0  0  0  0  0  0  0  0
  121.5447  123.4045   86.8848 H   0  0  0  0  0  0  0  0  0  0  0  0
  123.4006  122.9847   85.6397 H   0  0  0  0  0  0  0  0  0  0  0  0
  121.3260  123.5556   82.5722 H   0  0  0  0  0  0  0  0  0  0  0  0
  118.9618  124.3441   82.7212 H   0  0  0  0  0  0  0  0  0  0  0  0
  1  2  1  0
  2  3  1  0
  2  4  1  0
  2  5  1  0
  5  6  1  0
  6  7  2  0
  6  8  2  0
  6  9  1  0
  9 10  2  0
 10 11  1  0
 11 12  2  0
 12 13  1  0
 13 14  1  0
 14 15  2  0
 14 16  1  0
 16 17  1  0
 16 18  1  0
 16 19  1  0
 12 20  1  0
 20 21  2  0
 21  9  1  0
  1 22  1  0
  1 23  1  0
  1 24  1  0
  3 25  1  0
  3 26  1  0
  3 27  1  0
  4 28  1  0
  4 29  1  0
  4 30  1  0
  5 31  1  0
 10 32  1  0
 11 33  1  0
 13 34  1  0
 20 35  1  0
 21 36  1  0
M  END
>  <loss>  (20) 
0.599225640296936

>  <score>  (20) 
-14.060615539550781

$$$$
KGYQRGXFOKPZDO-UHFFFAOYSA-N
     RDKit          3D

 36 36  0  0  0  0  0  0  0  0999 V2000
  118.5257  128.6651   84.6151 C   0  0  0  0  0  0  0  0  0  0  0  0
  117.4837  127.7637   85.2853 C   0  0  0  0  0  0  0  0  0  0  0  0
  116.1126  128.4622   85.2178 C   0  0  0  0  0  0  0  0  0  0  0  0
  117.8369  127.5417   86.7560 C   0  0  0  0  0  0  0  0  0  0  0  0
  117.3503  126.5139   84.5144 N   0  0  0  0  0  0  0  0  0  0  0  0
  117.2856  124.9498   85.0905 S   0  0  0  0  0  6  0  0  0  0  0  0
  116.9032  124.9693   86.4839 O   0  0  0  0  0  0  0  0  0  0  0  0
  116.5179  124.2056   84.1153 O   0  0  0  0  0  0  0  0  0  0  0  0
  118.9600  124.3792   84.9711 C   0  0  0  0  0  0  0  0  0  0  0  0
  119.6811  124.0667   86.1230 C   0  0  0  0  0  0  0  0  0  0  0  0
  120.9947  123.6027   86.0069 C   0  0  0  0  0  0  0  0  0  0  0  0
  121.5924  123.4403   84.7477 C   0  0  0  0  0  0  0  0  0  0  0  0
  122.9217  122.9703   84.7307 N   0  0  0  0  0  0  0  0  0  0  0  0
  123.6588  122.5046   83.6348 C   0  0  0  0  0  0  0  0  0  0  0  0
  123.1561  122.2059   82.5510 O   0  0  0  0  0  0  0  0  0  0  0  0
  125.1902  122.4484   83.8880 C   0  0  0  0  0  0  0  0  0  0  0  0
  125.8992  121.1194   82.9199 Cl  0  0  0  0  0  0  0  0  0  0  0  0
  125.4417  122.1061   85.6237 Cl  0  0  0  0  0  0  0  0  0  0  0  0
  125.9755  123.9804   83.4487 Cl  0  0  0  0  0  0  0  0  0  0  0  0
  120.8495  123.7406   83.6029 C   0  0  0  0  0  0  0  0  0  0  0  0
  119.5329  124.2026   83.7103 C   0  0  0  0  0  0  0  0  0  0  0  0
  119.1181  129.1776   85.3874 H   0  0  0  0  0  0  0  0  0  0  0  0
  119.1912  128.0532   83.9885 H   0  0  0  0  0  0  0  0  0  0  0  0
  118.0159  129.4117   83.9885 H   0  0  0  0  0  0  0  0  0  0  0  0
  115.7457  128.6491   86.2379 H   0  0  0  0  0  0  0  0  0  0  0  0
  116.2142  129.4185   84.6837 H   0  0  0  0  0  0  0  0  0  0  0  0
  115.3987  127.8180   84.6837 H   0  0  0  0  0  0  0  0  0  0  0  0
  117.0768  128.0193   87.3918 H   0  0  0  0  0  0  0  0  0  0  0  0
  117.8663  126.4626   86.9673 H   0  0  0  0  0  0  0  0  0  0  0  0
  118.8219  127.9836   86.9673 H   0  0  0  0  0  0  0  0  0  0  0  0
  116.4777  126.6302   83.9796 H   0  0  0  0  0  0  0  0  0  0  0  0
  119.2202  124.1843   87.1148 H   0  0  0  0  0  0  0  0  0  0  0  0
  121.5674  123.3617   86.9146 H   0  0  0  0  0  0  0  0  0  0  0  0
  123.4114  122.9693   85.6368 H   0  0  0  0  0  0  0  0  0  0  0  0
  121.3033  123.6127   82.6091 H   0  0  0  0  0  0  0  0  0  0  0  0
  118.9511  124.4261   82.8038 H   0  0  0  0  0  0  0  0  0  0  0  0
  1  2  1  0
  2  3  1  0
  2  4  1  0
  2  5  1  0
  5  6  1  0
  6  7  2  0
  6  8  2  0
  6  9  1  0
  9 10  2  0
 10 11  1  0
 11 12  2  0
 12 13  1  0
 13 14  1  0
 14 15  2  0
 14 16  1  0
 16 17  1  0
 16 18  1  0
 16 19  1  0
 12 20  1  0
 20 21  2  0
 21  9  1  0
  1 22  1  0
  1 23  1  0
  1 24  1  0
  3 25  1  0
  3 26  1  0
  3 27  1  0
  4 28  1  0
  4 29  1  0
  4 30  1  0
  5 31  1  0
 10 32  1  0
 11 33  1  0
 13 34  1  0
 20 35  1  0
 21 36  1  0
M  END
>  <loss>  (21) 
0.6021104454994202

>  <score>  (21) 
-14.100282669067383

$$$$
KGYQRGXFOKPZDO-UHFFFAOYSA-N
     RDKit          3D

 36 36  0  0  0  0  0  0  0  0999 V2000
  118.5805  128.6597   84.8373 C   0  0  0  0  0  0  0  0  0  0  0  0
  117.5117  127.7297   85.4206 C   0  0  0  0  0  0  0  0  0  0  0  0
  116.1500  128.4472   85.3616 C   0  0  0  0  0  0  0  0  0  0  0  0
  117.8226  127.4105   86.8830 C   0  0  0  0  0  0  0  0  0  0  0  0
  117.3868  126.5332   84.5681 N   0  0  0  0  0  0  0  0  0  0  0  0
  117.3031  124.9356   85.0406 S   0  0  0  0  0  6  0  0  0  0  0  0
  116.8760  124.8668   86.4194 O   0  0  0  0  0  0  0  0  0  0  0  0
  116.5668  124.2572   83.9957 O   0  0  0  0  0  0  0  0  0  0  0  0
  118.9802  124.3697   84.9387 C   0  0  0  0  0  0  0  0  0  0  0  0
  119.6918  124.0641   86.0983 C   0  0  0  0  0  0  0  0  0  0  0  0
  121.0078  123.6038   85.9960 C   0  0  0  0  0  0  0  0  0  0  0  0
  121.6175  123.4381   84.7430 C   0  0  0  0  0  0  0  0  0  0  0  0
  122.9483  122.9722   84.7399 N   0  0  0  0  0  0  0  0  0  0  0  0
  123.6989  122.5107   83.6514 C   0  0  0  0  0  0  0  0  0  0  0  0
  123.2148  122.2504   82.5494 O   0  0  0  0  0  0  0  0  0  0  0  0
  125.2215  122.4061   83.9397 C   0  0  0  0  0  0  0  0  0  0  0  0
  125.4827  122.3341   85.7097 Cl  0  0  0  0  0  0  0  0  0  0  0  0
  125.9994  123.8792   83.2932 Cl  0  0  0  0  0  0  0  0  0  0  0  0
  125.9260  120.9618   83.1815 Cl  0  0  0  0  0  0  0  0  0  0  0  0
  120.8840  123.7315   83.5902 C   0  0  0  0  0  0  0  0  0  0  0  0
  119.5651  124.1898   83.6838 C   0  0  0  0  0  0  0  0  0  0  0  0
  119.1342  129.1414   85.6567 H   0  0  0  0  0  0  0  0  0  0  0  0
  119.2769  128.0751   84.2182 H   0  0  0  0  0  0  0  0  0  0  0  0
  118.0978  129.4302   84.2182 H   0  0  0  0  0  0  0  0  0  0  0  0
  115.7908  128.6365   86.3839 H   0  0  0  0  0  0  0  0  0  0  0  0
  116.2621  129.4033   84.8294 H   0  0  0  0  0  0  0  0  0  0  0  0
  115.4248  127.8141   84.8294 H   0  0  0  0  0  0  0  0  0  0  0  0
  117.2050  128.0446   87.5360 H   0  0  0  0  0  0  0  0  0  0  0  0
  117.5999  126.3520   87.0826 H   0  0  0  0  0  0  0  0  0  0  0  0
  118.8867  127.6053   87.0826 H   0  0  0  0  0  0  0  0  0  0  0  0
  116.5253  126.6893   84.0255 H   0  0  0  0  0  0  0  0  0  0  0  0
  119.2216  124.1844   87.0854 H   0  0  0  0  0  0  0  0  0  0  0  0
  121.5730  123.3682   86.9099 H   0  0  0  0  0  0  0  0  0  0  0  0
  123.4279  122.9711   85.6514 H   0  0  0  0  0  0  0  0  0  0  0  0
  121.3472  123.6010   82.6011 H   0  0  0  0  0  0  0  0  0  0  0  0
  118.9908  124.4078   82.7712 H   0  0  0  0  0  0  0  0  0  0  0  0
  1  2  1  0
  2  3  1  0
  2  4  1  0
  2  5  1  0
  5  6  1  0
  6  7  2  0
  6  8  2  0
  6  9  1  0
  9 10  2  0
 10 11  1  0
 11 12  2  0
 12 13  1  0
 13 14  1  0
 14 15  2  0
 14 16  1  0
 16 17  1  0
 16 18  1  0
 16 19  1  0
 12 20  1  0
 20 21  2  0
 21  9  1  0
  1 22  1  0
  1 23  1  0
  1 24  1  0
  3 25  1  0
  3 26  1  0
  3 27  1  0
  4 28  1  0
  4 29  1  0
  4 30  1  0
  5 31  1  0
 10 32  1  0
 11 33  1  0
 13 34  1  0
 20 35  1  0
 21 36  1  0
M  END
>  <loss>  (22) 
0.599706768989563

>  <score>  (22) 
-15.087260246276855

$$$$
KGYQRGXFOKPZDO-UHFFFAOYSA-N
     RDKit          3D

 36 36  0  0  0  0  0  0  0  0999 V2000
  118.5988  128.6316   85.0374 C   0  0  0  0  0  0  0  0  0  0  0  0
  117.5211  127.6896   85.5839 C   0  0  0  0  0  0  0  0  0  0  0  0
  116.1677  128.4246   85.5612 C   0  0  0  0  0  0  0  0  0  0  0  0
  117.8330  127.3038   87.0300 C   0  0  0  0  0  0  0  0  0  0  0  0
  117.3794  126.5326   84.6810 N   0  0  0  0  0  0  0  0  0  0  0  0
  117.2972  124.9158   85.0830 S   0  0  0  0  0  6  0  0  0  0  0  0
  116.8639  124.7861   86.4554 O   0  0  0  0  0  0  0  0  0  0  0  0
  116.5675  124.2820   84.0060 O   0  0  0  0  0  0  0  0  0  0  0  0
  118.9761  124.3585   84.9646 C   0  0  0  0  0  0  0  0  0  0  0  0
  119.6850  124.0101   86.1138 C   0  0  0  0  0  0  0  0  0  0  0  0
  121.0025  123.5573   85.9979 C   0  0  0  0  0  0  0  0  0  0  0  0
  121.6164  123.4418   84.7413 C   0  0  0  0  0  0  0  0  0  0  0  0
  122.9485  122.9797   84.7244 N   0  0  0  0  0  0  0  0  0  0  0  0
  123.6873  122.5153   83.6292 C   0  0  0  0  0  0  0  0  0  0  0  0
  123.1942  122.2681   82.5282 O   0  0  0  0  0  0  0  0  0  0  0  0
  125.2100  122.3891   83.9087 C   0  0  0  0  0  0  0  0  0  0  0  0
  125.4726  122.2068   85.6705 Cl  0  0  0  0  0  0  0  0  0  0  0  0
  125.9910  123.8976   83.3541 Cl  0  0  0  0  0  0  0  0  0  0  0  0
  125.9100  120.9930   83.0616 Cl  0  0  0  0  0  0  0  0  0  0  0  0
  120.8857  123.7777   83.5985 C   0  0  0  0  0  0  0  0  0  0  0  0
  119.5653  124.2288   83.7055 C   0  0  0  0  0  0  0  0  0  0  0  0
  119.1352  129.1005   85.8755 H   0  0  0  0  0  0  0  0  0  0  0  0
  119.3085  128.0591   84.4222 H   0  0  0  0  0  0  0  0  0  0  0  0
  118.1264  129.4115   84.4222 H   0  0  0  0  0  0  0  0  0  0  0  0
  115.8321  128.6069   86.5928 H   0  0  0  0  0  0  0  0  0  0  0  0
  116.2809  129.3852   85.0373 H   0  0  0  0  0  0  0  0  0  0  0  0
  115.4236  127.8067   85.0373 H   0  0  0  0  0  0  0  0  0  0  0  0
  117.2910  127.9741   87.7134 H   0  0  0  0  0  0  0  0  0  0  0  0
  117.5178  126.2652   87.2085 H   0  0  0  0  0  0  0  0  0  0  0  0
  118.9146  127.3946   87.2085 H   0  0  0  0  0  0  0  0  0  0  0  0
  116.5105  126.7152   84.1589 H   0  0  0  0  0  0  0  0  0  0  0  0
  119.2114  124.0908   87.1033 H   0  0  0  0  0  0  0  0  0  0  0  0
  121.5655  123.2880   86.9037 H   0  0  0  0  0  0  0  0  0  0  0  0
  123.4390  122.9842   85.6301 H   0  0  0  0  0  0  0  0  0  0  0  0
  121.3523  123.6867   82.6065 H   0  0  0  0  0  0  0  0  0  0  0  0
  118.9933  124.4804   82.8003 H   0  0  0  0  0  0  0  0  0  0  0  0
  1  2  1  0
  2  3  1  0
  2  4  1  0
  2  5  1  0
  5  6  1  0
  6  7  2  0
  6  8  2  0
  6  9  1  0
  9 10  2  0
 10 11  1  0
 11 12  2  0
 12 13  1  0
 13 14  1  0
 14 15  2  0
 14 16  1  0
 16 17  1  0
 16 18  1  0
 16 19  1  0
 12 20  1  0
 20 21  2  0
 21  9  1  0
  1 22  1  0
  1 23  1  0
  1 24  1  0
  3 25  1  0
  3 26  1  0
  3 27  1  0
  4 28  1  0
  4 29  1  0
  4 30  1  0
  5 31  1  0
 10 32  1  0
 11 33  1  0
 13 34  1  0
 20 35  1  0
 21 36  1  0
M  END
>  <loss>  (23) 
0.6025725603103638

>  <score>  (23) 
-15.70504093170166

$$$$
KGYQRGXFOKPZDO-UHFFFAOYSA-N
     RDKit          3D

 36 36  0  0  0  0  0  0  0  0999 V2000
  118.6702  128.6185   85.1116 C   0  0  0  0  0  0  0  0  0  0  0  0
  117.5365  127.7133   85.6042 C   0  0  0  0  0  0  0  0  0  0  0  0
  116.2134  128.4985   85.5323 C   0  0  0  0  0  0  0  0  0  0  0  0
  117.7733  127.3049   87.0583 C   0  0  0  0  0  0  0  0  0  0  0  0
  117.3899  126.5694   84.6855 N   0  0  0  0  0  0  0  0  0  0  0  0
  117.2927  124.9482   85.0659 S   0  0  0  0  0  6  0  0  0  0  0  0
  116.8502  124.8040   86.4339 O   0  0  0  0  0  0  0  0  0  0  0  0
  116.5645  124.3342   83.9764 O   0  0  0  0  0  0  0  0  0  0  0  0
  118.9679  124.3792   84.9500 C   0  0  0  0  0  0  0  0  0  0  0  0
  119.6709  124.0210   86.0997 C   0  0  0  0  0  0  0  0  0  0  0  0
  120.9855  123.5592   85.9858 C   0  0  0  0  0  0  0  0  0  0  0  0
  121.6021  123.4444   84.7305 C   0  0  0  0  0  0  0  0  0  0  0  0
  122.9309  122.9727   84.7156 N   0  0  0  0  0  0  0  0  0  0  0  0
  123.6644  122.4932   83.6234 C   0  0  0  0  0  0  0  0  0  0  0  0
  123.1584  122.1810   82.5449 O   0  0  0  0  0  0  0  0  0  0  0  0
  125.1966  122.4397   83.8726 C   0  0  0  0  0  0  0  0  0  0  0  0
  125.9112  121.1373   82.8729 Cl  0  0  0  0  0  0  0  0  0  0  0  0
  125.4532  122.0588   85.5995 Cl  0  0  0  0  0  0  0  0  0  0  0  0
  125.9726  123.9858   83.4674 Cl  0  0  0  0  0  0  0  0  0  0  0  0
  120.8772  123.7902   83.5870 C   0  0  0  0  0  0  0  0  0  0  0  0
  119.5598  124.2504   83.6921 C   0  0  0  0  0  0  0  0  0  0  0  0
  119.2021  129.0432   85.9757 H   0  0  0  0  0  0  0  0  0  0  0  0
  119.3717  128.0293   84.5027 H   0  0  0  0  0  0  0  0  0  0  0  0
  118.2508  129.4330   84.5027 H   0  0  0  0  0  0  0  0  0  0  0  0
  115.8568  128.7101   86.5511 H   0  0  0  0  0  0  0  0  0  0  0  0
  116.3776  129.4454   84.9972 H   0  0  0  0  0  0  0  0  0  0  0  0
  115.4609  127.9007   84.9972 H   0  0  0  0  0  0  0  0  0  0  0  0
  117.3353  128.0603   87.7273 H   0  0  0  0  0  0  0  0  0  0  0  0
  117.3005  126.3298   87.2470 H   0  0  0  0  0  0  0  0  0  0  0  0
  118.8545  127.2309   87.2470 H   0  0  0  0  0  0  0  0  0  0  0  0
  116.5251  126.7658   84.1617 H   0  0  0  0  0  0  0  0  0  0  0  0
  119.1950  124.1011   87.0882 H   0  0  0  0  0  0  0  0  0  0  0  0
  121.5438  123.2821   86.8922 H   0  0  0  0  0  0  0  0  0  0  0  0
  123.4230  122.9821   85.6203 H   0  0  0  0  0  0  0  0  0  0  0  0
  121.3460  123.7000   82.5960 H   0  0  0  0  0  0  0  0  0  0  0  0
  118.9922  124.5099   82.7863 H   0  0  0  0  0  0  0  0  0  0  0  0
  1  2  1  0
  2  3  1  0
  2  4  1  0
  2  5  1  0
  5  6  1  0
  6  7  2  0
  6  8  2  0
  6  9  1  0
  9 10  2  0
 10 11  1  0
 11 12  2  0
 12 13  1  0
 13 14  1  0
 14 15  2  0
 14 16  1  0
 16 17  1  0
 16 18  1  0
 16 19  1  0
 12 20  1  0
 20 21  2  0
 21  9  1  0
  1 22  1  0
  1 23  1  0
  1 24  1  0
  3 25  1  0
  3 26  1  0
  3 27  1  0
  4 28  1  0
  4 29  1  0
  4 30  1  0
  5 31  1  0
 10 32  1  0
 11 33  1  0
 13 34  1  0
 20 35  1  0
 21 36  1  0
M  END
>  <loss>  (24) 
0.6018451452255249

>  <score>  (24) 
-16.723237991333008

$$$$
KGYQRGXFOKPZDO-UHFFFAOYSA-N
     RDKit          3D

 36 36  0  0  0  0  0  0  0  0999 V2000
  118.7195  128.6420   85.1567 C   0  0  0  0  0  0  0  0  0  0  0  0
  117.5766  127.7397   85.6332 C   0  0  0  0  0  0  0  0  0  0  0  0
  116.2573  128.5301   85.5472 C   0  0  0  0  0  0  0  0  0  0  0  0
  117.7941  127.3268   87.0889 C   0  0  0  0  0  0  0  0  0  0  0  0
  117.4369  126.5988   84.7097 N   0  0  0  0  0  0  0  0  0  0  0  0
  117.3285  124.9770   85.0846 S   0  0  0  0  0  6  0  0  0  0  0  0
  116.8828  124.8313   86.4515 O   0  0  0  0  0  0  0  0  0  0  0  0
  116.5980  124.3714   83.9920 O   0  0  0  0  0  0  0  0  0  0  0  0
  119.0000  124.3975   84.9696 C   0  0  0  0  0  0  0  0  0  0  0  0
  119.7213  124.0948   86.1240 C   0  0  0  0  0  0  0  0  0  0  0  0
  121.0326  123.6235   86.0115 C   0  0  0  0  0  0  0  0  0  0  0  0
  121.6279  123.4441   84.7535 C   0  0  0  0  0  0  0  0  0  0  0  0
  122.9551  122.9679   84.7401 N   0  0  0  0  0  0  0  0  0  0  0  0
  123.7032  122.5277   83.6413 C   0  0  0  0  0  0  0  0  0  0  0  0
  123.2153  122.2799   82.5380 O   0  0  0  0  0  0  0  0  0  0  0  0
  125.2281  122.4298   83.9202 C   0  0  0  0  0  0  0  0  0  0  0  0
  125.4939  122.2337   85.6800 Cl  0  0  0  0  0  0  0  0  0  0  0  0
  125.9781  123.9600   83.3824 Cl  0  0  0  0  0  0  0  0  0  0  0  0
  125.9569  121.0577   83.0582 Cl  0  0  0  0  0  0  0  0  0  0  0  0
  120.8849  123.7348   83.6063 C   0  0  0  0  0  0  0  0  0  0  0  0
  119.5705  124.2041   83.7101 C   0  0  0  0  0  0  0  0  0  0  0  0
  119.2462  129.0578   86.0284 H   0  0  0  0  0  0  0  0  0  0  0  0
  119.4230  128.0531   84.5499 H   0  0  0  0  0  0  0  0  0  0  0  0
  118.3100  129.4630   84.5499 H   0  0  0  0  0  0  0  0  0  0  0  0
  115.8936  128.7479   86.5622 H   0  0  0  0  0  0  0  0  0  0  0  0
  116.4296  129.4738   85.0090 H   0  0  0  0  0  0  0  0  0  0  0  0
  115.5065  127.9329   85.0090 H   0  0  0  0  0  0  0  0  0  0  0  0
  117.3860  128.1015   87.7547 H   0  0  0  0  0  0  0  0  0  0  0  0
  117.2818  126.3722   87.2798 H   0  0  0  0  0  0  0  0  0  0  0  0
  118.8711  127.2095   87.2798 H   0  0  0  0  0  0  0  0  0  0  0  0
  116.5796  126.8001   84.1756 H   0  0  0  0  0  0  0  0  0  0  0  0
  119.2622  124.2257   87.1150 H   0  0  0  0  0  0  0  0  0  0  0  0
  121.6054  123.3902   86.9212 H   0  0  0  0  0  0  0  0  0  0  0  0
  123.4336  122.9405   85.6518 H   0  0  0  0  0  0  0  0  0  0  0  0
  121.3368  123.5937   82.6134 H   0  0  0  0  0  0  0  0  0  0  0  0
  118.9886  124.4199   82.8019 H   0  0  0  0  0  0  0  0  0  0  0  0
  1  2  1  0
  2  3  1  0
  2  4  1  0
  2  5  1  0
  5  6  1  0
  6  7  2  0
  6  8  2  0
  6  9  1  0
  9 10  2  0
 10 11  1  0
 11 12  2  0
 12 13  1  0
 13 14  1  0
 14 15  2  0
 14 16  1  0
 16 17  1  0
 16 18  1  0
 16 19  1  0
 12 20  1  0
 20 21  2  0
 21  9  1  0
  1 22  1  0
  1 23  1  0
  1 24  1  0
  3 25  1  0
  3 26  1  0
  3 27  1  0
  4 28  1  0
  4 29  1  0
  4 30  1  0
  5 31  1  0
 10 32  1  0
 11 33  1  0
 13 34  1  0
 20 35  1  0
 21 36  1  0
M  END
>  <loss>  (25) 
0.5978628396987915

>  <score>  (25) 
-17.245397567749023

$$$$
