KIFKUMPVMHUQKG-UHFFFAOYSA-N
     RDKit          3D

 42 42  0  0  0  0  0  0  0  0999 V2000
  116.8629  123.0735   87.0418 C   0  0  0  0  0  0  0  0  0  0  0  0
  117.4405  122.2432   88.1773 C   0  0  0  0  0  0  0  0  0  0  0  0
  118.2601  123.1061   89.1398 C   0  0  0  0  0  0  0  0  0  0  0  0
  118.7164  122.3243   90.3728 C   0  0  0  0  0  0  0  0  0  0  0  0
  119.4934  121.1805   90.0220 O   0  0  0  0  0  0  0  0  0  0  0  0
  120.7909  121.3512   89.6331 C   0  0  0  0  0  0  0  0  0  0  0  0
  121.2347  121.9580   88.4597 C   0  0  0  0  0  0  0  0  0  0  0  0
  122.6073  122.0616   88.1861 C   0  0  0  0  0  0  0  0  0  0  0  0
  123.5473  121.5562   89.0829 C   0  0  0  0  0  0  0  0  0  0  0  0
  124.9057  121.5935   88.9467 O   0  0  0  0  0  0  0  0  0  0  0  0
  125.4680  121.6224   87.6322 C   0  0  0  0  0  0  0  0  0  0  0  0
  125.8240  123.0560   87.2249 C   0  0  0  0  0  0  0  0  0  0  0  0
  125.3684  123.4167   85.8939 N   0  0  0  0  0  0  0  0  0  0  0  0
  125.2323  122.4723   84.8976 C   0  0  0  0  0  0  0  0  0  0  0  0
  125.4699  121.2822   85.0628 O   0  0  0  0  0  0  0  0  0  0  0  0
  124.7477  123.0649   83.5888 C   0  0  0  0  0  0  0  0  0  0  0  0
  124.7756  122.0583   82.4527 C   0  0  0  0  0  0  0  0  0  0  0  0
  123.1004  120.9489   90.2566 C   0  0  0  0  0  0  0  0  0  0  0  0
  121.7341  120.8464   90.5287 C   0  0  0  0  0  0  0  0  0  0  0  0
  116.2813  123.9094   87.4579 H   0  0  0  0  0  0  0  0  0  0  0  0
  117.6820  123.4688   86.4231 H   0  0  0  0  0  0  0  0  0  0  0  0
  116.2074  122.4430   86.4231 H   0  0  0  0  0  0  0  0  0  0  0  0
  116.6155  121.7730   88.7325 H   0  0  0  0  0  0  0  0  0  0  0  0
  118.1050  121.4805   87.7450 H   0  0  0  0  0  0  0  0  0  0  0  0
  119.1481  123.4815   88.6101 H   0  0  0  0  0  0  0  0  0  0  0  0
  117.6187  123.9315   89.4822 H   0  0  0  0  0  0  0  0  0  0  0  0
  119.3242  122.9855   91.0079 H   0  0  0  0  0  0  0  0  0  0  0  0
  117.8194  121.9757   90.9057 H   0  0  0  0  0  0  0  0  0  0  0  0
  120.5035  122.3587   87.7423 H   0  0  0  0  0  0  0  0  0  0  0  0
  122.9439  122.5452   87.2572 H   0  0  0  0  0  0  0  0  0  0  0  0
  126.3789  121.0059   87.6158 H   0  0  0  0  0  0  0  0  0  0  0  0
  124.7261  121.2278   86.9223 H   0  0  0  0  0  0  0  0  0  0  0  0
  125.3647  123.7463   87.9478 H   0  0  0  0  0  0  0  0  0  0  0  0
  126.9219  123.1240   87.2175 H   0  0  0  0  0  0  0  0  0  0  0  0
  125.1417  124.4003   85.6891 H   0  0  0  0  0  0  0  0  0  0  0  0
  123.7148  123.4187   83.7221 H   0  0  0  0  0  0  0  0  0  0  0  0
  125.4251  123.8898   83.3229 H   0  0  0  0  0  0  0  0  0  0  0  0
  124.8038  121.0394   82.8661 H   0  0  0  0  0  0  0  0  0  0  0  0
  123.8738  122.1783   81.8343 H   0  0  0  0  0  0  0  0  0  0  0  0
  125.6694  122.2280   81.8343 H   0  0  0  0  0  0  0  0  0  0  0  0
  123.8306  120.5470   90.9744 H   0  0  0  0  0  0  0  0  0  0  0  0
  121.3986  120.3629   91.4581 H   0  0  0  0  0  0  0  0  0  0  0  0
  1  2  1  0
  2  3  1  0
  3  4  1  0
  4  5  1  0
  5  6  1  0
  6  7  2  0
  7  8  1  0
  8  9  2  0
  9 10  1  0
 10 11  1  0
 11 12  1  0
 12 13  1  0
 13 14  1  0
 14 15  2  0
 14 16  1  0
 16 17  1  0
  9 18  1  0
 18 19  2  0
 19  6  1  0
  1 20  1  0
  1 21  1  0
  1 22  1  0
  2 23  1  0
  2 24  1  0
  3 25  1  0
  3 26  1  0
  4 27  1  0
  4 28  1  0
  7 29  1  0
  8 30  1  0
 11 31  1  0
 11 32  1  0
 12 33  1  0
 12 34  1  0
 13 35  1  0
 16 36  1  0
 16 37  1  0
 17 38  1  0
 17 39  1  0
 17 40  1  0
 18 41  1  0
 19 42  1  0
M  END
>  <loss>  (1) 
0.9475359916687012

>  <score>  (1) 
3.0114822387695312

$$$$
KIFKUMPVMHUQKG-UHFFFAOYSA-N
     RDKit          3D

 42 42  0  0  0  0  0  0  0  0999 V2000
  119.0743  125.5428   91.1047 C   0  0  0  0  0  0  0  0  0  0  0  0
  119.9369  125.1430   92.2915 C   0  0  0  0  0  0  0  0  0  0  0  0
  120.6263  123.7912   92.1145 C   0  0  0  0  0  0  0  0  0  0  0  0
  119.6594  122.6419   91.8356 C   0  0  0  0  0  0  0  0  0  0  0  0
  120.4025  121.5903   91.2169 O   0  0  0  0  0  0  0  0  0  0  0  0
  120.7519  121.7626   89.9068 C   0  0  0  0  0  0  0  0  0  0  0  0
  119.8988  122.1336   88.8702 C   0  0  0  0  0  0  0  0  0  0  0  0
  120.3982  122.2731   87.5702 C   0  0  0  0  0  0  0  0  0  0  0  0
  121.7479  122.0455   87.2883 C   0  0  0  0  0  0  0  0  0  0  0  0
  122.0906  122.2265   85.9776 O   0  0  0  0  0  0  0  0  0  0  0  0
  123.4528  122.0215   85.5993 C   0  0  0  0  0  0  0  0  0  0  0  0
  124.0986  123.3316   85.1391 C   0  0  0  0  0  0  0  0  0  0  0  0
  125.5400  123.3438   85.3012 N   0  0  0  0  0  0  0  0  0  0  0  0
  126.2112  122.2619   85.8292 C   0  0  0  0  0  0  0  0  0  0  0  0
  125.9310  121.1017   85.5511 O   0  0  0  0  0  0  0  0  0  0  0  0
  127.3306  122.6626   86.7690 C   0  0  0  0  0  0  0  0  0  0  0  0
  128.0689  121.4616   87.3331 C   0  0  0  0  0  0  0  0  0  0  0  0
  122.6004  121.6755   88.3260 C   0  0  0  0  0  0  0  0  0  0  0  0
  122.1011  121.5371   89.6263 C   0  0  0  0  0  0  0  0  0  0  0  0
  118.1319  125.9795   91.4670 H   0  0  0  0  0  0  0  0  0  0  0  0
  119.6111  126.2839   90.4943 H   0  0  0  0  0  0  0  0  0  0  0  0
  118.8558  124.6541   90.4943 H   0  0  0  0  0  0  0  0  0  0  0  0
  120.7100  125.9122   92.4350 H   0  0  0  0  0  0  0  0  0  0  0  0
  119.2699  125.0551   93.1618 H   0  0  0  0  0  0  0  0  0  0  0  0
  121.3285  123.8670   91.2712 H   0  0  0  0  0  0  0  0  0  0  0  0
  121.1338  123.5620   93.0631 H   0  0  0  0  0  0  0  0  0  0  0  0
  119.2193  122.2852   92.7785 H   0  0  0  0  0  0  0  0  0  0  0  0
  118.8432  122.9757   91.1780 H   0  0  0  0  0  0  0  0  0  0  0  0
  118.8333  122.3167   89.0731 H   0  0  0  0  0  0  0  0  0  0  0  0
  119.7175  122.5667   86.7575 H   0  0  0  0  0  0  0  0  0  0  0  0
  124.0106  121.6295   86.4625 H   0  0  0  0  0  0  0  0  0  0  0  0
  123.4804  121.3056   84.7646 H   0  0  0  0  0  0  0  0  0  0  0  0
  123.8648  123.4821   84.0749 H   0  0  0  0  0  0  0  0  0  0  0  0
  123.6912  124.1365   85.7685 H   0  0  0  0  0  0  0  0  0  0  0  0
  126.0727  124.1779   85.0159 H   0  0  0  0  0  0  0  0  0  0  0  0
  128.0464  123.2911   86.2187 H   0  0  0  0  0  0  0  0  0  0  0  0
  126.8821  123.2079   87.6126 H   0  0  0  0  0  0  0  0  0  0  0  0
  128.0454  121.4997   88.4322 H   0  0  0  0  0  0  0  0  0  0  0  0
  127.5829  120.5371   86.9878 H   0  0  0  0  0  0  0  0  0  0  0  0
  129.1132  121.4778   86.9878 H   0  0  0  0  0  0  0  0  0  0  0  0
  123.6660  121.4922   88.1235 H   0  0  0  0  0  0  0  0  0  0  0  0
  122.7820  121.2461   90.4398 H   0  0  0  0  0  0  0  0  0  0  0  0
  1  2  1  0
  2  3  1  0
  3  4  1  0
  4  5  1  0
  5  6  1  0
  6  7  2  0
  7  8  1  0
  8  9  2  0
  9 10  1  0
 10 11  1  0
 11 12  1  0
 12 13  1  0
 13 14  1  0
 14 15  2  0
 14 16  1  0
 16 17  1  0
  9 18  1  0
 18 19  2  0
 19  6  1  0
  1 20  1  0
  1 21  1  0
  1 22  1  0
  2 23  1  0
  2 24  1  0
  3 25  1  0
  3 26  1  0
  4 27  1  0
  4 28  1  0
  7 29  1  0
  8 30  1  0
 11 31  1  0
 11 32  1  0
 12 33  1  0
 12 34  1  0
 13 35  1  0
 16 36  1  0
 16 37  1  0
 17 38  1  0
 17 39  1  0
 17 40  1  0
 18 41  1  0
 19 42  1  0
M  END
>  <loss>  (2) 
1.0332471132278442

>  <score>  (2) 
2.756387710571289

$$$$
KIFKUMPVMHUQKG-UHFFFAOYSA-N
     RDKit          3D

 42 42  0  0  0  0  0  0  0  0999 V2000
  118.5984  124.8236   89.3620 C   0  0  0  0  0  0  0  0  0  0  0  0
  119.4708  125.0387   90.5883 C   0  0  0  0  0  0  0  0  0  0  0  0
  120.5440  123.9647   90.7982 C   0  0  0  0  0  0  0  0  0  0  0  0
  120.0394  122.6922   91.4827 C   0  0  0  0  0  0  0  0  0  0  0  0
  120.4473  121.5079   90.8021 O   0  0  0  0  0  0  0  0  0  0  0  0
  121.5230  121.5589   89.9628 C   0  0  0  0  0  0  0  0  0  0  0  0
  122.7603  121.4906   90.6045 C   0  0  0  0  0  0  0  0  0  0  0  0
  123.9471  121.5283   89.8689 C   0  0  0  0  0  0  0  0  0  0  0  0
  123.9146  121.6327   88.4785 C   0  0  0  0  0  0  0  0  0  0  0  0
  125.1418  121.6616   87.8776 O   0  0  0  0  0  0  0  0  0  0  0  0
  125.6159  120.4377   87.3056 C   0  0  0  0  0  0  0  0  0  0  0  0
  125.6374  120.5965   85.7862 C   0  0  0  0  0  0  0  0  0  0  0  0
  125.6428  121.9961   85.3935 N   0  0  0  0  0  0  0  0  0  0  0  0
  124.9330  122.4250   84.2920 C   0  0  0  0  0  0  0  0  0  0  0  0
  124.0580  121.7577   83.7526 O   0  0  0  0  0  0  0  0  0  0  0  0
  125.3445  123.8104   83.8332 C   0  0  0  0  0  0  0  0  0  0  0  0
  124.7637  124.1669   82.4766 C   0  0  0  0  0  0  0  0  0  0  0  0
  122.6803  121.6970   87.8332 C   0  0  0  0  0  0  0  0  0  0  0  0
  121.4890  121.6595   88.5731 C   0  0  0  0  0  0  0  0  0  0  0  0
  117.5758  124.5715   89.6791 H   0  0  0  0  0  0  0  0  0  0  0  0
  118.5792  125.7439   88.7598 H   0  0  0  0  0  0  0  0  0  0  0  0
  119.0092  123.9999   88.7598 H   0  0  0  0  0  0  0  0  0  0  0  0
  119.9732  126.0120   90.4867 H   0  0  0  0  0  0  0  0  0  0  0  0
  118.8029  124.9899   91.4611 H   0  0  0  0  0  0  0  0  0  0  0  0
  120.9509  123.6880   89.8144 H   0  0  0  0  0  0  0  0  0  0  0  0
  121.2998  124.4024   91.4670 H   0  0  0  0  0  0  0  0  0  0  0  0
  120.4344  122.6632   92.5089 H   0  0  0  0  0  0  0  0  0  0  0  0
  118.9398  122.7212   91.4734 H   0  0  0  0  0  0  0  0  0  0  0  0
  122.8014  121.4062   91.7005 H   0  0  0  0  0  0  0  0  0  0  0  0
  124.9144  121.4752   90.3899 H   0  0  0  0  0  0  0  0  0  0  0  0
  126.6310  120.2244   87.6719 H   0  0  0  0  0  0  0  0  0  0  0  0
  124.9564  119.6049   87.5909 H   0  0  0  0  0  0  0  0  0  0  0  0
  126.5413  120.1111   85.3895 H   0  0  0  0  0  0  0  0  0  0  0  0
  124.7288  120.1289   85.3789 H   0  0  0  0  0  0  0  0  0  0  0  0
  126.1842  122.6766   85.9456 H   0  0  0  0  0  0  0  0  0  0  0  0
  124.9937  124.5459   84.5720 H   0  0  0  0  0  0  0  0  0  0  0  0
  126.4407  123.8218   83.7422 H   0  0  0  0  0  0  0  0  0  0  0  0
  123.8336  124.7378   82.6145 H   0  0  0  0  0  0  0  0  0  0  0  0
  125.4881  124.7761   81.9162 H   0  0  0  0  0  0  0  0  0  0  0  0
  124.5484  123.2452   81.9162 H   0  0  0  0  0  0  0  0  0  0  0  0
  122.6403  121.7777   86.7369 H   0  0  0  0  0  0  0  0  0  0  0  0
  120.5212  121.7099   88.0528 H   0  0  0  0  0  0  0  0  0  0  0  0
  1  2  1  0
  2  3  1  0
  3  4  1  0
  4  5  1  0
  5  6  1  0
  6  7  2  0
  7  8  1  0
  8  9  2  0
  9 10  1  0
 10 11  1  0
 11 12  1  0
 12 13  1  0
 13 14  1  0
 14 15  2  0
 14 16  1  0
 16 17  1  0
  9 18  1  0
 18 19  2  0
 19  6  1  0
  1 20  1  0
  1 21  1  0
  1 22  1  0
  2 23  1  0
  2 24  1  0
  3 25  1  0
  3 26  1  0
  4 27  1  0
  4 28  1  0
  7 29  1  0
  8 30  1  0
 11 31  1  0
 11 32  1  0
 12 33  1  0
 12 34  1  0
 13 35  1  0
 16 36  1  0
 16 37  1  0
 17 38  1  0
 17 39  1  0
 17 40  1  0
 18 41  1  0
 19 42  1  0
M  END
>  <loss>  (3) 
1.231356143951416

>  <score>  (3) 
2.6265628337860107

$$$$
KIFKUMPVMHUQKG-UHFFFAOYSA-N
     RDKit          3D

 42 42  0  0  0  0  0  0  0  0999 V2000
  125.9168  122.8831   92.5006 C   0  0  0  0  0  0  0  0  0  0  0  0
  126.4963  121.6075   91.9095 C   0  0  0  0  0  0  0  0  0  0  0  0
  125.4326  120.6095   91.4553 C   0  0  0  0  0  0  0  0  0  0  0  0
  124.0897  120.7803   92.1632 C   0  0  0  0  0  0  0  0  0  0  0  0
  123.0815  120.2169   91.3225 O   0  0  0  0  0  0  0  0  0  0  0  0
  122.6764  120.9626   90.2511 C   0  0  0  0  0  0  0  0  0  0  0  0
  121.4459  121.5997   90.1107 C   0  0  0  0  0  0  0  0  0  0  0  0
  121.1670  122.3336   88.9521 C   0  0  0  0  0  0  0  0  0  0  0  0
  122.1067  122.4409   87.9233 C   0  0  0  0  0  0  0  0  0  0  0  0
  121.6968  123.1938   86.8587 O   0  0  0  0  0  0  0  0  0  0  0  0
  121.6393  122.5738   85.5730 C   0  0  0  0  0  0  0  0  0  0  0  0
  122.6677  123.1890   84.6196 C   0  0  0  0  0  0  0  0  0  0  0  0
  123.4931  122.1981   83.9557 N   0  0  0  0  0  0  0  0  0  0  0  0
  124.8689  122.2805   83.9768 C   0  0  0  0  0  0  0  0  0  0  0  0
  125.5635  121.6494   84.7649 O   0  0  0  0  0  0  0  0  0  0  0  0
  125.4208  123.2159   82.9197 C   0  0  0  0  0  0  0  0  0  0  0  0
  126.4872  124.1456   83.4712 C   0  0  0  0  0  0  0  0  0  0  0  0
  123.3375  121.8042   88.0651 C   0  0  0  0  0  0  0  0  0  0  0  0
  123.6167  121.0711   89.2245 C   0  0  0  0  0  0  0  0  0  0  0  0
  125.9438  122.8237   93.5986 H   0  0  0  0  0  0  0  0  0  0  0  0
  126.5113  123.7457   92.1653 H   0  0  0  0  0  0  0  0  0  0  0  0
  124.8759  123.0027   92.1653 H   0  0  0  0  0  0  0  0  0  0  0  0
  127.1155  121.8761   91.0409 H   0  0  0  0  0  0  0  0  0  0  0  0
  127.0810  121.1192   92.7030 H   0  0  0  0  0  0  0  0  0  0  0  0
  125.2745  120.7380   90.3744 H   0  0  0  0  0  0  0  0  0  0  0  0
  125.8044  119.6055   91.7080 H   0  0  0  0  0  0  0  0  0  0  0  0
  124.1067  120.2568   93.1304 H   0  0  0  0  0  0  0  0  0  0  0  0
  123.8852  121.8448   92.3502 H   0  0  0  0  0  0  0  0  0  0  0  0
  120.6937  121.5262   90.9100 H   0  0  0  0  0  0  0  0  0  0  0  0
  120.1927  122.8338   88.8496 H   0  0  0  0  0  0  0  0  0  0  0  0
  121.8480  121.4993   85.6822 H   0  0  0  0  0  0  0  0  0  0  0  0
  120.6348  122.7310   85.1531 H   0  0  0  0  0  0  0  0  0  0  0  0
  122.1318  123.7683   83.8533 H   0  0  0  0  0  0  0  0  0  0  0  0
  123.3360  123.8216   85.2222 H   0  0  0  0  0  0  0  0  0  0  0  0
  123.0421  121.4170   83.4584 H   0  0  0  0  0  0  0  0  0  0  0  0
  125.8604  122.6145   82.1102 H   0  0  0  0  0  0  0  0  0  0  0  0
  124.5900  123.8370   82.5538 H   0  0  0  0  0  0  0  0  0  0  0  0
  126.4608  124.1226   84.5706 H   0  0  0  0  0  0  0  0  0  0  0  0
  127.4769  123.8169   83.1212 H   0  0  0  0  0  0  0  0  0  0  0  0
  126.2964  125.1709   83.1212 H   0  0  0  0  0  0  0  0  0  0  0  0
  124.0900  121.8774   87.2661 H   0  0  0  0  0  0  0  0  0  0  0  0
  124.5919  120.5729   89.3284 H   0  0  0  0  0  0  0  0  0  0  0  0
  1  2  1  0
  2  3  1  0
  3  4  1  0
  4  5  1  0
  5  6  1  0
  6  7  2  0
  7  8  1  0
  8  9  2  0
  9 10  1  0
 10 11  1  0
 11 12  1  0
 12 13  1  0
 13 14  1  0
 14 15  2  0
 14 16  1  0
 16 17  1  0
  9 18  1  0
 18 19  2  0
 19  6  1  0
  1 20  1  0
  1 21  1  0
  1 22  1  0
  2 23  1  0
  2 24  1  0
  3 25  1  0
  3 26  1  0
  4 27  1  0
  4 28  1  0
  7 29  1  0
  8 30  1  0
 11 31  1  0
 11 32  1  0
 12 33  1  0
 12 34  1  0
 13 35  1  0
 16 36  1  0
 16 37  1  0
 17 38  1  0
 17 39  1  0
 17 40  1  0
 18 41  1  0
 19 42  1  0
M  END
>  <loss>  (4) 
1.2013623714447021

>  <score>  (4) 
2.0498669147491455

$$$$
KIFKUMPVMHUQKG-UHFFFAOYSA-N
     RDKit          3D

 42 42  0  0  0  0  0  0  0  0999 V2000
  127.8435  121.1164   91.0902 C   0  0  0  0  0  0  0  0  0  0  0  0
  127.1423  119.7866   90.8647 C   0  0  0  0  0  0  0  0  0  0  0  0
  125.6532  119.9061   90.5212 C   0  0  0  0  0  0  0  0  0  0  0  0
  124.7096  119.6158   91.6907 C   0  0  0  0  0  0  0  0  0  0  0  0
  123.5182  120.3969   91.6375 O   0  0  0  0  0  0  0  0  0  0  0  0
  123.2044  121.0554   90.4834 C   0  0  0  0  0  0  0  0  0  0  0  0
  122.0910  120.5472   89.8128 C   0  0  0  0  0  0  0  0  0  0  0  0
  121.6533  121.1257   88.6191 C   0  0  0  0  0  0  0  0  0  0  0  0
  122.3217  122.2240   88.0784 C   0  0  0  0  0  0  0  0  0  0  0  0
  121.7958  122.6949   86.9081 O   0  0  0  0  0  0  0  0  0  0  0  0
  122.1963  124.0059   86.4951 C   0  0  0  0  0  0  0  0  0  0  0  0
  122.6384  123.9333   85.0344 C   0  0  0  0  0  0  0  0  0  0  0  0
  123.1620  122.6197   84.6976 N   0  0  0  0  0  0  0  0  0  0  0  0
  124.4282  122.4762   84.1709 C   0  0  0  0  0  0  0  0  0  0  0  0
  125.4519  122.6113   84.8310 O   0  0  0  0  0  0  0  0  0  0  0  0
  124.4126  122.1227   82.6965 C   0  0  0  0  0  0  0  0  0  0  0  0
  125.7823  122.2550   82.0553 C   0  0  0  0  0  0  0  0  0  0  0  0
  123.4320  122.7373   88.7475 C   0  0  0  0  0  0  0  0  0  0  0  0
  123.8710  122.1551   89.9461 C   0  0  0  0  0  0  0  0  0  0  0  0
  127.9408  121.3011   92.1702 H   0  0  0  0  0  0  0  0  0  0  0  0
  128.8429  121.0863   90.6318 H   0  0  0  0  0  0  0  0  0  0  0  0
  127.2540  121.9241   90.6318 H   0  0  0  0  0  0  0  0  0  0  0  0
  127.6461  119.2682   90.0356 H   0  0  0  0  0  0  0  0  0  0  0  0
  127.2020  119.2351   91.8146 H   0  0  0  0  0  0  0  0  0  0  0  0
  125.4621  120.9312   90.1711 H   0  0  0  0  0  0  0  0  0  0  0  0
  125.4458  119.1455   89.7541 H   0  0  0  0  0  0  0  0  0  0  0  0
  124.4346  118.5510   91.6662 H   0  0  0  0  0  0  0  0  0  0  0  0
  125.2385  119.8757   92.6195 H   0  0  0  0  0  0  0  0  0  0  0  0
  121.5528  119.6825   90.2283 H   0  0  0  0  0  0  0  0  0  0  0  0
  120.7750  120.7121   88.1018 H   0  0  0  0  0  0  0  0  0  0  0  0
  121.3501  124.7019   86.5937 H   0  0  0  0  0  0  0  0  0  0  0  0
  123.0235  124.3660   87.1245 H   0  0  0  0  0  0  0  0  0  0  0  0
  121.7743  124.1492   84.3889 H   0  0  0  0  0  0  0  0  0  0  0  0
  123.4387  124.6721   84.8805 H   0  0  0  0  0  0  0  0  0  0  0  0
  122.5794  121.7850   84.8544 H   0  0  0  0  0  0  0  0  0  0  0  0
  124.0697  121.0834   82.5860 H   0  0  0  0  0  0  0  0  0  0  0  0
  123.7357  122.8265   82.1900 H   0  0  0  0  0  0  0  0  0  0  0  0
  126.5491  122.3291   82.8405 H   0  0  0  0  0  0  0  0  0  0  0  0
  125.9815  121.3719   81.4304 H   0  0  0  0  0  0  0  0  0  0  0  0
  125.8088  123.1599   81.4304 H   0  0  0  0  0  0  0  0  0  0  0  0
  123.9673  123.6043   88.3330 H   0  0  0  0  0  0  0  0  0  0  0  0
  124.7475  122.5696   90.4655 H   0  0  0  0  0  0  0  0  0  0  0  0
  1  2  1  0
  2  3  1  0
  3  4  1  0
  4  5  1  0
  5  6  1  0
  6  7  2  0
  7  8  1  0
  8  9  2  0
  9 10  1  0
 10 11  1  0
 11 12  1  0
 12 13  1  0
 13 14  1  0
 14 15  2  0
 14 16  1  0
 16 17  1  0
  9 18  1  0
 18 19  2  0
 19  6  1  0
  1 20  1  0
  1 21  1  0
  1 22  1  0
  2 23  1  0
  2 24  1  0
  3 25  1  0
  3 26  1  0
  4 27  1  0
  4 28  1  0
  7 29  1  0
  8 30  1  0
 11 31  1  0
 11 32  1  0
 12 33  1  0
 12 34  1  0
 13 35  1  0
 16 36  1  0
 16 37  1  0
 17 38  1  0
 17 39  1  0
 17 40  1  0
 18 41  1  0
 19 42  1  0
M  END
>  <loss>  (5) 
1.3181555271148682

>  <score>  (5) 
1.7277705669403076

$$$$
KIFKUMPVMHUQKG-UHFFFAOYSA-N
     RDKit          3D

 42 42  0  0  0  0  0  0  0  0999 V2000
  126.5574  124.0812   92.0576 C   0  0  0  0  0  0  0  0  0  0  0  0
  126.3481  122.5789   91.9485 C   0  0  0  0  0  0  0  0  0  0  0  0
  124.8989  122.1930   92.2539 C   0  0  0  0  0  0  0  0  0  0  0  0
  124.6138  120.7236   91.9437 C   0  0  0  0  0  0  0  0  0  0  0  0
  123.2574  120.5963   91.5196 O   0  0  0  0  0  0  0  0  0  0  0  0
  122.9342  121.1139   90.2968 C   0  0  0  0  0  0  0  0  0  0  0  0
  121.7845  121.9039   90.2826 C   0  0  0  0  0  0  0  0  0  0  0  0
  121.3433  122.4939   89.0959 C   0  0  0  0  0  0  0  0  0  0  0  0
  122.0446  122.3008   87.9053 C   0  0  0  0  0  0  0  0  0  0  0  0
  121.5103  122.9322   86.8171 O   0  0  0  0  0  0  0  0  0  0  0  0
  121.4716  122.1933   85.5903 C   0  0  0  0  0  0  0  0  0  0  0  0
  122.4050  122.8821   84.5912 C   0  0  0  0  0  0  0  0  0  0  0  0
  123.7827  122.9103   85.0547 N   0  0  0  0  0  0  0  0  0  0  0  0
  124.8188  122.5405   84.2227 C   0  0  0  0  0  0  0  0  0  0  0  0
  125.5186  121.5539   84.4218 O   0  0  0  0  0  0  0  0  0  0  0  0
  124.9926  123.4807   83.0465 C   0  0  0  0  0  0  0  0  0  0  0  0
  126.4148  123.9976   82.9251 C   0  0  0  0  0  0  0  0  0  0  0  0
  123.1938  121.5108   87.9164 C   0  0  0  0  0  0  0  0  0  0  0  0
  123.6370  120.9191   89.1083 C   0  0  0  0  0  0  0  0  0  0  0  0
  126.5976  124.3697   93.1184 H   0  0  0  0  0  0  0  0  0  0  0  0
  127.5025  124.3563   91.5667 H   0  0  0  0  0  0  0  0  0  0  0  0
  125.7234  124.6042   91.5667 H   0  0  0  0  0  0  0  0  0  0  0  0
  126.5966  122.2563   90.9267 H   0  0  0  0  0  0  0  0  0  0  0  0
  127.0001  122.0844   92.6836 H   0  0  0  0  0  0  0  0  0  0  0  0
  124.7014  122.3743   93.3207 H   0  0  0  0  0  0  0  0  0  0  0  0
  124.2451  122.8053   91.6154 H   0  0  0  0  0  0  0  0  0  0  0  0
  125.2850  120.3780   91.1436 H   0  0  0  0  0  0  0  0  0  0  0  0
  124.7824  120.1129   92.8430 H   0  0  0  0  0  0  0  0  0  0  0  0
  121.2207  122.0635   91.2136 H   0  0  0  0  0  0  0  0  0  0  0  0
  120.4359  123.1157   89.1000 H   0  0  0  0  0  0  0  0  0  0  0  0
  121.8094  121.1612   85.7657 H   0  0  0  0  0  0  0  0  0  0  0  0
  120.4454  122.1635   85.1953 H   0  0  0  0  0  0  0  0  0  0  0  0
  122.3639  122.3386   83.6357 H   0  0  0  0  0  0  0  0  0  0  0  0
  122.0667  123.9223   84.4756 H   0  0  0  0  0  0  0  0  0  0  0  0
  123.9881  123.2108   86.0182 H   0  0  0  0  0  0  0  0  0  0  0  0
  124.7319  122.9432   82.1229 H   0  0  0  0  0  0  0  0  0  0  0  0
  124.3334  124.3463   83.2084 H   0  0  0  0  0  0  0  0  0  0  0  0
  126.8363  124.1508   83.9295 H   0  0  0  0  0  0  0  0  0  0  0  0
  127.0261  123.2642   82.3789 H   0  0  0  0  0  0  0  0  0  0  0  0
  126.4125  124.9524   82.3789 H   0  0  0  0  0  0  0  0  0  0  0  0
  123.7560  121.3506   86.9846 H   0  0  0  0  0  0  0  0  0  0  0  0
  124.5445  120.2976   89.1055 H   0  0  0  0  0  0  0  0  0  0  0  0
  1  2  1  0
  2  3  1  0
  3  4  1  0
  4  5  1  0
  5  6  1  0
  6  7  2  0
  7  8  1  0
  8  9  2  0
  9 10  1  0
 10 11  1  0
 11 12  1  0
 12 13  1  0
 13 14  1  0
 14 15  2  0
 14 16  1  0
 16 17  1  0
  9 18  1  0
 18 19  2  0
 19  6  1  0
  1 20  1  0
  1 21  1  0
  1 22  1  0
  2 23  1  0
  2 24  1  0
  3 25  1  0
  3 26  1  0
  4 27  1  0
  4 28  1  0
  7 29  1  0
  8 30  1  0
 11 31  1  0
 11 32  1  0
 12 33  1  0
 12 34  1  0
 13 35  1  0
 16 36  1  0
 16 37  1  0
 17 38  1  0
 17 39  1  0
 17 40  1  0
 18 41  1  0
 19 42  1  0
M  END
>  <loss>  (6) 
1.177812099456787

>  <score>  (6) 
-0.4593851566314697

$$$$
KIFKUMPVMHUQKG-UHFFFAOYSA-N
     RDKit          3D

 42 42  0  0  0  0  0  0  0  0999 V2000
  118.6757  126.3603   89.9712 C   0  0  0  0  0  0  0  0  0  0  0  0
  119.3890  125.4217   90.9309 C   0  0  0  0  0  0  0  0  0  0  0  0
  119.0235  123.9428   90.7620 C   0  0  0  0  0  0  0  0  0  0  0  0
  119.7725  122.9969   91.7018 C   0  0  0  0  0  0  0  0  0  0  0  0
  120.0599  121.7809   91.0145 O   0  0  0  0  0  0  0  0  0  0  0  0
  121.0444  121.8143   90.0677 C   0  0  0  0  0  0  0  0  0  0  0  0
  120.8745  122.0929   88.7123 C   0  0  0  0  0  0  0  0  0  0  0  0
  121.9764  122.0966   87.8437 C   0  0  0  0  0  0  0  0  0  0  0  0
  123.2558  121.8225   88.3245 C   0  0  0  0  0  0  0  0  0  0  0  0
  124.4120  121.7990   87.5986 O   0  0  0  0  0  0  0  0  0  0  0  0
  124.7746  120.6006   86.9025 C   0  0  0  0  0  0  0  0  0  0  0  0
  123.9978  120.4744   85.5879 C   0  0  0  0  0  0  0  0  0  0  0  0
  123.7582  121.7661   84.9659 N   0  0  0  0  0  0  0  0  0  0  0  0
  124.8023  122.5276   84.4841 C   0  0  0  0  0  0  0  0  0  0  0  0
  125.9332  122.4891   84.9553 O   0  0  0  0  0  0  0  0  0  0  0  0
  124.3994  123.4057   83.3161 C   0  0  0  0  0  0  0  0  0  0  0  0
  125.0353  124.7826   83.3817 C   0  0  0  0  0  0  0  0  0  0  0  0
  123.4218  121.5460   89.6825 C   0  0  0  0  0  0  0  0  0  0  0  0
  122.3252  121.5427   90.5475 C   0  0  0  0  0  0  0  0  0  0  0  0
  118.1074  127.1079   90.5440 H   0  0  0  0  0  0  0  0  0  0  0  0
  119.4167  126.8695   89.3375 H   0  0  0  0  0  0  0  0  0  0  0  0
  117.9866  125.7825   89.3375 H   0  0  0  0  0  0  0  0  0  0  0  0
  120.4726  125.5281   90.7738 H   0  0  0  0  0  0  0  0  0  0  0  0
  119.0713  125.7091   91.9440 H   0  0  0  0  0  0  0  0  0  0  0  0
  117.9453  123.8312   90.9487 H   0  0  0  0  0  0  0  0  0  0  0  0
  119.3121  123.6625   89.7382 H   0  0  0  0  0  0  0  0  0  0  0  0
  120.7127  123.4677   92.0247 H   0  0  0  0  0  0  0  0  0  0  0  0
  119.1502  122.7839   92.5836 H   0  0  0  0  0  0  0  0  0  0  0  0
  119.8699  122.3113   88.3212 H   0  0  0  0  0  0  0  0  0  0  0  0
  121.8296  122.3173   86.7761 H   0  0  0  0  0  0  0  0  0  0  0  0
  125.8523  120.6240   86.6829 H   0  0  0  0  0  0  0  0  0  0  0  0
  124.5303  119.7374   87.5389 H   0  0  0  0  0  0  0  0  0  0  0  0
  124.5767  119.8484   84.8929 H   0  0  0  0  0  0  0  0  0  0  0  0
  123.0210  120.0223   85.8148 H   0  0  0  0  0  0  0  0  0  0  0  0
  122.7938  122.1182   84.8836 H   0  0  0  0  0  0  0  0  0  0  0  0
  124.7119  122.9163   82.3818 H   0  0  0  0  0  0  0  0  0  0  0  0
  123.3081  123.5376   83.3561 H   0  0  0  0  0  0  0  0  0  0  0  0
  125.1700  125.0745   84.4337 H   0  0  0  0  0  0  0  0  0  0  0  0
  126.0136  124.7590   82.8795 H   0  0  0  0  0  0  0  0  0  0  0  0
  124.3828  125.5121   82.8795 H   0  0  0  0  0  0  0  0  0  0  0  0
  124.4261  121.3286   90.0752 H   0  0  0  0  0  0  0  0  0  0  0  0
  122.4731  121.3242   91.6154 H   0  0  0  0  0  0  0  0  0  0  0  0
  1  2  1  0
  2  3  1  0
  3  4  1  0
  4  5  1  0
  5  6  1  0
  6  7  2  0
  7  8  1  0
  8  9  2  0
  9 10  1  0
 10 11  1  0
 11 12  1  0
 12 13  1  0
 13 14  1  0
 14 15  2  0
 14 16  1  0
 16 17  1  0
  9 18  1  0
 18 19  2  0
 19  6  1  0
  1 20  1  0
  1 21  1  0
  1 22  1  0
  2 23  1  0
  2 24  1  0
  3 25  1  0
  3 26  1  0
  4 27  1  0
  4 28  1  0
  7 29  1  0
  8 30  1  0
 11 31  1  0
 11 32  1  0
 12 33  1  0
 12 34  1  0
 13 35  1  0
 16 36  1  0
 16 37  1  0
 17 38  1  0
 17 39  1  0
 17 40  1  0
 18 41  1  0
 19 42  1  0
M  END
>  <loss>  (7) 
0.9115940928459167

>  <score>  (7) 
-1.8533978462219238

$$$$
KIFKUMPVMHUQKG-UHFFFAOYSA-N
     RDKit          3D

 42 42  0  0  0  0  0  0  0  0999 V2000
  119.2778  126.0182   91.2637 C   0  0  0  0  0  0  0  0  0  0  0  0
  118.9468  124.5457   91.4496 C   0  0  0  0  0  0  0  0  0  0  0  0
  120.2056  123.6774   91.3850 C   0  0  0  0  0  0  0  0  0  0  0  0
  119.9776  122.2828   91.9704 C   0  0  0  0  0  0  0  0  0  0  0  0
  120.2812  121.2534   91.0305 O   0  0  0  0  0  0  0  0  0  0  0  0
  120.9162  121.5807   89.8671 C   0  0  0  0  0  0  0  0  0  0  0  0
  122.2831  121.7913   89.6961 C   0  0  0  0  0  0  0  0  0  0  0  0
  122.8001  122.1281   88.4355 C   0  0  0  0  0  0  0  0  0  0  0  0
  121.9532  122.2600   87.3362 C   0  0  0  0  0  0  0  0  0  0  0  0
  122.3193  122.5760   86.0589 O   0  0  0  0  0  0  0  0  0  0  0  0
  123.5540  123.2646   85.8441 C   0  0  0  0  0  0  0  0  0  0  0  0
  124.2633  122.7316   84.5949 C   0  0  0  0  0  0  0  0  0  0  0  0
  125.0477  121.5328   84.8337 N   0  0  0  0  0  0  0  0  0  0  0  0
  126.0854  121.5190   85.7425 C   0  0  0  0  0  0  0  0  0  0  0  0
  126.4886  122.5226   86.3173 O   0  0  0  0  0  0  0  0  0  0  0  0
  126.6588  120.1321   85.9584 C   0  0  0  0  0  0  0  0  0  0  0  0
  127.8226  120.1327   86.9331 C   0  0  0  0  0  0  0  0  0  0  0  0
  120.5852  122.0492   87.5101 C   0  0  0  0  0  0  0  0  0  0  0  0
  120.0711  121.7135   88.7649 C   0  0  0  0  0  0  0  0  0  0  0  0
  119.3854  126.4969   92.2482 H   0  0  0  0  0  0  0  0  0  0  0  0
  120.2200  126.1145   90.7042 H   0  0  0  0  0  0  0  0  0  0  0  0
  118.4675  126.5085   90.7042 H   0  0  0  0  0  0  0  0  0  0  0  0
  118.4668  124.4078   92.4297 H   0  0  0  0  0  0  0  0  0  0  0  0
  118.2719  124.2376   90.6374 H   0  0  0  0  0  0  0  0  0  0  0  0
  120.5110  123.5743   90.3333 H   0  0  0  0  0  0  0  0  0  0  0  0
  120.9863  124.1705   91.9828 H   0  0  0  0  0  0  0  0  0  0  0  0
  120.6213  122.1586   92.8537 H   0  0  0  0  0  0  0  0  0  0  0  0
  118.9142  122.1960   92.2381 H   0  0  0  0  0  0  0  0  0  0  0  0
  122.9622  121.6928   90.5558 H   0  0  0  0  0  0  0  0  0  0  0  0
  123.8814  122.2891   88.3142 H   0  0  0  0  0  0  0  0  0  0  0  0
  123.3505  124.3377   85.7132 H   0  0  0  0  0  0  0  0  0  0  0  0
  124.2049  123.1022   86.7158 H   0  0  0  0  0  0  0  0  0  0  0  0
  123.5019  122.5023   83.8348 H   0  0  0  0  0  0  0  0  0  0  0  0
  124.9640  123.5131   84.2659 H   0  0  0  0  0  0  0  0  0  0  0  0
  124.8240  120.6730   84.3124 H   0  0  0  0  0  0  0  0  0  0  0  0
  125.8664  119.4800   86.3545 H   0  0  0  0  0  0  0  0  0  0  0  0
  127.0326  119.7691   84.9896 H   0  0  0  0  0  0  0  0  0  0  0  0
  127.4379  120.1325   87.9636 H   0  0  0  0  0  0  0  0  0  0  0  0
  128.4371  119.2348   86.7710 H   0  0  0  0  0  0  0  0  0  0  0  0
  128.4363  121.0311   86.7710 H   0  0  0  0  0  0  0  0  0  0  0  0
  119.9050  122.1481   86.6513 H   0  0  0  0  0  0  0  0  0  0  0  0
  118.9897  121.5524   88.8851 H   0  0  0  0  0  0  0  0  0  0  0  0
  1  2  1  0
  2  3  1  0
  3  4  1  0
  4  5  1  0
  5  6  1  0
  6  7  2  0
  7  8  1  0
  8  9  2  0
  9 10  1  0
 10 11  1  0
 11 12  1  0
 12 13  1  0
 13 14  1  0
 14 15  2  0
 14 16  1  0
 16 17  1  0
  9 18  1  0
 18 19  2  0
 19  6  1  0
  1 20  1  0
  1 21  1  0
  1 22  1  0
  2 23  1  0
  2 24  1  0
  3 25  1  0
  3 26  1  0
  4 27  1  0
  4 28  1  0
  7 29  1  0
  8 30  1  0
 11 31  1  0
 11 32  1  0
 12 33  1  0
 12 34  1  0
 13 35  1  0
 16 36  1  0
 16 37  1  0
 17 38  1  0
 17 39  1  0
 17 40  1  0
 18 41  1  0
 19 42  1  0
M  END
>  <loss>  (8) 
1.03219473361969

>  <score>  (8) 
-1.9680347442626953

$$$$
KIFKUMPVMHUQKG-UHFFFAOYSA-N
     RDKit          3D

 42 42  0  0  0  0  0  0  0  0999 V2000
  118.5541  125.9312   89.6664 C   0  0  0  0  0  0  0  0  0  0  0  0
  118.3796  124.4683   90.0432 C   0  0  0  0  0  0  0  0  0  0  0  0
  119.4947  123.9954   90.9790 C   0  0  0  0  0  0  0  0  0  0  0  0
  119.4051  122.4975   91.2755 C   0  0  0  0  0  0  0  0  0  0  0  0
  119.7066  121.7071   90.1268 O   0  0  0  0  0  0  0  0  0  0  0  0
  120.9593  121.7678   89.5874 C   0  0  0  0  0  0  0  0  0  0  0  0
  121.3753  122.5876   88.5401 C   0  0  0  0  0  0  0  0  0  0  0  0
  122.7013  122.5418   88.0828 C   0  0  0  0  0  0  0  0  0  0  0  0
  123.6214  121.6729   88.6674 C   0  0  0  0  0  0  0  0  0  0  0  0
  124.9364  121.5295   88.3276 O   0  0  0  0  0  0  0  0  0  0  0  0
  125.2651  121.0902   87.0071 C   0  0  0  0  0  0  0  0  0  0  0  0
  126.2476  122.0590   86.3408 C   0  0  0  0  0  0  0  0  0  0  0  0
  125.6127  123.0203   85.4563 N   0  0  0  0  0  0  0  0  0  0  0  0
  124.8212  122.6163   84.4011 C   0  0  0  0  0  0  0  0  0  0  0  0
  124.5638  121.4423   84.1652 O   0  0  0  0  0  0  0  0  0  0  0  0
  124.2994  123.7789   83.5796 C   0  0  0  0  0  0  0  0  0  0  0  0
  123.7840  123.3414   82.2203 C   0  0  0  0  0  0  0  0  0  0  0  0
  123.2023  120.8529   89.7152 C   0  0  0  0  0  0  0  0  0  0  0  0
  121.8824  120.8992   90.1705 C   0  0  0  0  0  0  0  0  0  0  0  0
  118.6266  126.5391   90.5804 H   0  0  0  0  0  0  0  0  0  0  0  0
  119.4728  126.0501   89.0732 H   0  0  0  0  0  0  0  0  0  0  0  0
  117.6891  126.2628   89.0732 H   0  0  0  0  0  0  0  0  0  0  0  0
  117.4108  124.3420   90.5485 H   0  0  0  0  0  0  0  0  0  0  0  0
  118.4216  123.8667   89.1232 H   0  0  0  0  0  0  0  0  0  0  0  0
  120.4658  124.2054   90.5070 H   0  0  0  0  0  0  0  0  0  0  0  0
  119.3868  124.5348   91.9315 H   0  0  0  0  0  0  0  0  0  0  0  0
  120.1197  122.2502   92.0745 H   0  0  0  0  0  0  0  0  0  0  0  0
  118.3729  122.2725   91.5818 H   0  0  0  0  0  0  0  0  0  0  0  0
  120.6588  123.2761   88.0683 H   0  0  0  0  0  0  0  0  0  0  0  0
  123.0170  123.1963   87.2569 H   0  0  0  0  0  0  0  0  0  0  0  0
  125.7245  120.0922   87.0629 H   0  0  0  0  0  0  0  0  0  0  0  0
  124.3436  121.0542   86.4076 H   0  0  0  0  0  0  0  0  0  0  0  0
  126.7788  122.6116   87.1298 H   0  0  0  0  0  0  0  0  0  0  0  0
  126.9258  121.4531   85.7222 H   0  0  0  0  0  0  0  0  0  0  0  0
  125.7568  124.0268   85.6206 H   0  0  0  0  0  0  0  0  0  0  0  0
  123.4781  124.2604   84.1306 H   0  0  0  0  0  0  0  0  0  0  0  0
  125.1353  124.4743   83.4135 H   0  0  0  0  0  0  0  0  0  0  0  0
  122.9516  122.6347   82.3539 H   0  0  0  0  0  0  0  0  0  0  0  0
  123.4322  124.2209   81.6611 H   0  0  0  0  0  0  0  0  0  0  0  0
  124.5947  122.8514   81.6611 H   0  0  0  0  0  0  0  0  0  0  0  0
  123.9177  120.1635   90.1874 H   0  0  0  0  0  0  0  0  0  0  0  0
  121.5679  120.2445   90.9966 H   0  0  0  0  0  0  0  0  0  0  0  0
  1  2  1  0
  2  3  1  0
  3  4  1  0
  4  5  1  0
  5  6  1  0
  6  7  2  0
  7  8  1  0
  8  9  2  0
  9 10  1  0
 10 11  1  0
 11 12  1  0
 12 13  1  0
 13 14  1  0
 14 15  2  0
 14 16  1  0
 16 17  1  0
  9 18  1  0
 18 19  2  0
 19  6  1  0
  1 20  1  0
  1 21  1  0
  1 22  1  0
  2 23  1  0
  2 24  1  0
  3 25  1  0
  3 26  1  0
  4 27  1  0
  4 28  1  0
  7 29  1  0
  8 30  1  0
 11 31  1  0
 11 32  1  0
 12 33  1  0
 12 34  1  0
 13 35  1  0
 16 36  1  0
 16 37  1  0
 17 38  1  0
 17 39  1  0
 17 40  1  0
 18 41  1  0
 19 42  1  0
M  END
>  <loss>  (9) 
0.9231118559837341

>  <score>  (9) 
-2.7875208854675293

$$$$
KIFKUMPVMHUQKG-UHFFFAOYSA-N
     RDKit          3D

 42 42  0  0  0  0  0  0  0  0999 V2000
  126.5542  124.0420   92.2653 C   0  0  0  0  0  0  0  0  0  0  0  0
  125.4001  123.0792   92.4971 C   0  0  0  0  0  0  0  0  0  0  0  0
  125.5468  121.8158   91.6457 C   0  0  0  0  0  0  0  0  0  0  0  0
  124.5890  120.7072   92.0850 C   0  0  0  0  0  0  0  0  0  0  0  0
  123.2276  121.0429   91.8221 O   0  0  0  0  0  0  0  0  0  0  0  0
  122.8366  121.2774   90.5352 C   0  0  0  0  0  0  0  0  0  0  0  0
  122.7228  120.3344   89.5154 C   0  0  0  0  0  0  0  0  0  0  0  0
  122.3102  120.7205   88.2307 C   0  0  0  0  0  0  0  0  0  0  0  0
  122.0110  122.0537   87.9549 C   0  0  0  0  0  0  0  0  0  0  0  0
  121.5954  122.5649   86.7586 O   0  0  0  0  0  0  0  0  0  0  0  0
  122.5744  122.8890   85.7680 C   0  0  0  0  0  0  0  0  0  0  0  0
  122.4881  121.9225   84.5821 C   0  0  0  0  0  0  0  0  0  0  0  0
  123.7645  121.6740   83.9353 N   0  0  0  0  0  0  0  0  0  0  0  0
  124.9070  122.3499   84.3108 C   0  0  0  0  0  0  0  0  0  0  0  0
  125.3290  122.3695   85.4604 O   0  0  0  0  0  0  0  0  0  0  0  0
  125.5837  123.0503   83.1487 C   0  0  0  0  0  0  0  0  0  0  0  0
  126.6980  123.9768   83.6013 C   0  0  0  0  0  0  0  0  0  0  0  0
  122.1261  122.9957   88.9774 C   0  0  0  0  0  0  0  0  0  0  0  0
  122.5365  122.6110   90.2561 C   0  0  0  0  0  0  0  0  0  0  0  0
  126.9538  124.3754   93.2344 H   0  0  0  0  0  0  0  0  0  0  0  0
  127.3471  123.5339   91.6970 H   0  0  0  0  0  0  0  0  0  0  0  0
  126.1964  124.9132   91.6970 H   0  0  0  0  0  0  0  0  0  0  0  0
  125.3795  122.7944   93.5594 H   0  0  0  0  0  0  0  0  0  0  0  0
  124.4657  123.5836   92.2097 H   0  0  0  0  0  0  0  0  0  0  0  0
  125.3368  122.0698   90.5962 H   0  0  0  0  0  0  0  0  0  0  0  0
  126.5741  121.4427   91.7701 H   0  0  0  0  0  0  0  0  0  0  0  0
  124.8391  119.7849   91.5401 H   0  0  0  0  0  0  0  0  0  0  0  0
  124.7020  120.5705   93.1706 H   0  0  0  0  0  0  0  0  0  0  0  0
  122.9583  119.2794   89.7189 H   0  0  0  0  0  0  0  0  0  0  0  0
  122.2222  119.9654   87.4357 H   0  0  0  0  0  0  0  0  0  0  0  0
  122.4004  123.9147   85.4108 H   0  0  0  0  0  0  0  0  0  0  0  0
  123.5741  122.8054   86.2193 H   0  0  0  0  0  0  0  0  0  0  0  0
  122.0902  120.9632   84.9446 H   0  0  0  0  0  0  0  0  0  0  0  0
  121.8347  122.3924   83.8323 H   0  0  0  0  0  0  0  0  0  0  0  0
  123.8180  120.9770   83.1788 H   0  0  0  0  0  0  0  0  0  0  0  0
  126.0076  122.2900   82.4763 H   0  0  0  0  0  0  0  0  0  0  0  0
  124.8254  123.6620   82.6381 H   0  0  0  0  0  0  0  0  0  0  0  0
  126.7293  124.0029   84.7006 H   0  0  0  0  0  0  0  0  0  0  0  0
  127.6602  123.6087   83.2157 H   0  0  0  0  0  0  0  0  0  0  0  0
  126.5118  124.9900   83.2157 H   0  0  0  0  0  0  0  0  0  0  0  0
  121.8917  124.0512   88.7749 H   0  0  0  0  0  0  0  0  0  0  0  0
  122.6238  123.3668   91.0506 H   0  0  0  0  0  0  0  0  0  0  0  0
  1  2  1  0
  2  3  1  0
  3  4  1  0
  4  5  1  0
  5  6  1  0
  6  7  2  0
  7  8  1  0
  8  9  2  0
  9 10  1  0
 10 11  1  0
 11 12  1  0
 12 13  1  0
 13 14  1  0
 14 15  2  0
 14 16  1  0
 16 17  1  0
  9 18  1  0
 18 19  2  0
 19  6  1  0
  1 20  1  0
  1 21  1  0
  1 22  1  0
  2 23  1  0
  2 24  1  0
  3 25  1  0
  3 26  1  0
  4 27  1  0
  4 28  1  0
  7 29  1  0
  8 30  1  0
 11 31  1  0
 11 32  1  0
 12 33  1  0
 12 34  1  0
 13 35  1  0
 16 36  1  0
 16 37  1  0
 17 38  1  0
 17 39  1  0
 17 40  1  0
 18 41  1  0
 19 42  1  0
M  END
>  <loss>  (10) 
1.257672905921936

>  <score>  (10) 
-1.2586498260498047

$$$$
KIFKUMPVMHUQKG-UHFFFAOYSA-N
     RDKit          3D

 42 42  0  0  0  0  0  0  0  0999 V2000
  118.9468  126.2921   89.8457 C   0  0  0  0  0  0  0  0  0  0  0  0
  119.4346  125.2937   90.8830 C   0  0  0  0  0  0  0  0  0  0  0  0
  119.0526  123.8381   90.5922 C   0  0  0  0  0  0  0  0  0  0  0  0
  119.5702  122.8326   91.6218 C   0  0  0  0  0  0  0  0  0  0  0  0
  119.9388  121.6261   90.9571 O   0  0  0  0  0  0  0  0  0  0  0  0
  121.0352  121.6694   90.1429 C   0  0  0  0  0  0  0  0  0  0  0  0
  121.0283  121.8542   88.7611 C   0  0  0  0  0  0  0  0  0  0  0  0
  122.2323  121.8806   88.0413 C   0  0  0  0  0  0  0  0  0  0  0  0
  123.4517  121.7231   88.6983 C   0  0  0  0  0  0  0  0  0  0  0  0
  124.6925  121.7345   88.1285 O   0  0  0  0  0  0  0  0  0  0  0  0
  125.1302  120.5900   87.3864 C   0  0  0  0  0  0  0  0  0  0  0  0
  124.2117  120.3300   86.1880 C   0  0  0  0  0  0  0  0  0  0  0  0
  124.1186  121.4831   85.3078 N   0  0  0  0  0  0  0  0  0  0  0  0
  125.2364  122.2240   84.9864 C   0  0  0  0  0  0  0  0  0  0  0  0
  126.2844  122.1652   85.6195 O   0  0  0  0  0  0  0  0  0  0  0  0
  125.0270  123.1075   83.7726 C   0  0  0  0  0  0  0  0  0  0  0  0
  125.7939  124.4141   83.8695 C   0  0  0  0  0  0  0  0  0  0  0  0
  123.4544  121.5402   90.0820 C   0  0  0  0  0  0  0  0  0  0  0  0
  122.2560  121.5144   90.7989 C   0  0  0  0  0  0  0  0  0  0  0  0
  118.5185  127.1688   90.3536 H   0  0  0  0  0  0  0  0  0  0  0  0
  119.7915  126.6092   89.2164 H   0  0  0  0  0  0  0  0  0  0  0  0
  118.1775  125.8207   89.2164 H   0  0  0  0  0  0  0  0  0  0  0  0
  120.5316  125.3579   90.9325 H   0  0  0  0  0  0  0  0  0  0  0  0
  118.9451  125.5625   91.8307 H   0  0  0  0  0  0  0  0  0  0  0  0
  117.9551  123.7690   90.5651 H   0  0  0  0  0  0  0  0  0  0  0  0
  119.5221  123.5755   89.6327 H   0  0  0  0  0  0  0  0  0  0  0  0
  120.4475  123.2518   92.1362 H   0  0  0  0  0  0  0  0  0  0  0  0
  118.7821  122.6213   92.3595 H   0  0  0  0  0  0  0  0  0  0  0  0
  120.0724  121.9802   88.2316 H   0  0  0  0  0  0  0  0  0  0  0  0
  122.2140  122.0266   86.9512 H   0  0  0  0  0  0  0  0  0  0  0  0
  126.1538  120.7660   87.0240 H   0  0  0  0  0  0  0  0  0  0  0  0
  125.1019  119.7113   88.0475 H   0  0  0  0  0  0  0  0  0  0  0  0
  124.6083  119.4785   85.6157 H   0  0  0  0  0  0  0  0  0  0  0  0
  123.2039  120.1178   86.5745 H   0  0  0  0  0  0  0  0  0  0  0  0
  123.2035  121.7508   84.9180 H   0  0  0  0  0  0  0  0  0  0  0  0
  125.3655  122.5647   82.8777 H   0  0  0  0  0  0  0  0  0  0  0  0
  123.9558  123.3505   83.7151 H   0  0  0  0  0  0  0  0  0  0  0  0
  125.9456  124.6726   84.9278 H   0  0  0  0  0  0  0  0  0  0  0  0
  126.7705  124.3036   83.3754 H   0  0  0  0  0  0  0  0  0  0  0  0
  125.2213  125.2128   83.3754 H   0  0  0  0  0  0  0  0  0  0  0  0
  124.4095  121.4153   90.6130 H   0  0  0  0  0  0  0  0  0  0  0  0
  122.2752  121.3706   91.8893 H   0  0  0  0  0  0  0  0  0  0  0  0
  1  2  1  0
  2  3  1  0
  3  4  1  0
  4  5  1  0
  5  6  1  0
  6  7  2  0
  7  8  1  0
  8  9  2  0
  9 10  1  0
 10 11  1  0
 11 12  1  0
 12 13  1  0
 13 14  1  0
 14 15  2  0
 14 16  1  0
 16 17  1  0
  9 18  1  0
 18 19  2  0
 19  6  1  0
  1 20  1  0
  1 21  1  0
  1 22  1  0
  2 23  1  0
  2 24  1  0
  3 25  1  0
  3 26  1  0
  4 27  1  0
  4 28  1  0
  7 29  1  0
  8 30  1  0
 11 31  1  0
 11 32  1  0
 12 33  1  0
 12 34  1  0
 13 35  1  0
 16 36  1  0
 16 37  1  0
 17 38  1  0
 17 39  1  0
 17 40  1  0
 18 41  1  0
 19 42  1  0
M  END
>  <loss>  (11) 
0.9493638277053833

>  <score>  (11) 
-2.87900972366333

$$$$
KIFKUMPVMHUQKG-UHFFFAOYSA-N
     RDKit          3D

 42 42  0  0  0  0  0  0  0  0999 V2000
  119.5465  126.7196   90.7827 C   0  0  0  0  0  0  0  0  0  0  0  0
  118.9599  125.3235   90.9169 C   0  0  0  0  0  0  0  0  0  0  0  0
  119.9924  124.2279   91.2055 C   0  0  0  0  0  0  0  0  0  0  0  0
  119.3935  122.9111   91.7053 C   0  0  0  0  0  0  0  0  0  0  0  0
  119.4397  121.8818   90.7200 O   0  0  0  0  0  0  0  0  0  0  0  0
  120.4821  121.8496   89.8388 C   0  0  0  0  0  0  0  0  0  0  0  0
  120.1218  122.0725   88.5091 C   0  0  0  0  0  0  0  0  0  0  0  0
  121.0874  122.0714   87.4998 C   0  0  0  0  0  0  0  0  0  0  0  0
  122.4299  121.8493   87.8053 C   0  0  0  0  0  0  0  0  0  0  0  0
  123.2731  121.8714   86.7300 O   0  0  0  0  0  0  0  0  0  0  0  0
  123.1937  123.0082   85.8633 C   0  0  0  0  0  0  0  0  0  0  0  0
  124.0216  122.7155   84.6131 C   0  0  0  0  0  0  0  0  0  0  0  0
  124.9182  121.5893   84.8155 N   0  0  0  0  0  0  0  0  0  0  0  0
  126.0168  121.6988   85.6416 C   0  0  0  0  0  0  0  0  0  0  0  0
  126.4266  122.7674   86.0797 O   0  0  0  0  0  0  0  0  0  0  0  0
  126.6495  120.3570   85.9555 C   0  0  0  0  0  0  0  0  0  0  0  0
  127.8314  120.4815   86.9001 C   0  0  0  0  0  0  0  0  0  0  0  0
  122.7947  121.6303   89.1332 C   0  0  0  0  0  0  0  0  0  0  0  0
  121.8239  121.6313   90.1460 C   0  0  0  0  0  0  0  0  0  0  0  0
  119.7235  127.1407   91.7833 H   0  0  0  0  0  0  0  0  0  0  0  0
  120.4983  126.6661   90.2337 H   0  0  0  0  0  0  0  0  0  0  0  0
  118.8422  127.3620   90.2337 H   0  0  0  0  0  0  0  0  0  0  0  0
  118.2306  125.3345   91.7403 H   0  0  0  0  0  0  0  0  0  0  0  0
  118.5059  125.0790   89.9453 H   0  0  0  0  0  0  0  0  0  0  0  0
  120.5460  124.0238   90.2772 H   0  0  0  0  0  0  0  0  0  0  0  0
  120.6352  124.6072   92.0135 H   0  0  0  0  0  0  0  0  0  0  0  0
  119.9587  122.5793   92.5887 H   0  0  0  0  0  0  0  0  0  0  0  0
  118.3364  123.0951   91.9471 H   0  0  0  0  0  0  0  0  0  0  0  0
  119.0669  122.2509   88.2534 H   0  0  0  0  0  0  0  0  0  0  0  0
  120.7867  122.2469   86.4564 H   0  0  0  0  0  0  0  0  0  0  0  0
  122.1458  123.1890   85.5818 H   0  0  0  0  0  0  0  0  0  0  0  0
  123.5804  123.9025   86.3739 H   0  0  0  0  0  0  0  0  0  0  0  0
  123.3410  122.4845   83.7804 H   0  0  0  0  0  0  0  0  0  0  0  0
  124.6306  123.6036   84.3885 H   0  0  0  0  0  0  0  0  0  0  0  0
  124.7304  120.6976   84.3354 H   0  0  0  0  0  0  0  0  0  0  0  0
  125.8919  119.7094   86.4209 H   0  0  0  0  0  0  0  0  0  0  0  0
  127.0184  119.9310   85.0108 H   0  0  0  0  0  0  0  0  0  0  0  0
  127.4751  120.4440   87.9401 H   0  0  0  0  0  0  0  0  0  0  0  0
  128.5318  119.6521   86.7223 H   0  0  0  0  0  0  0  0  0  0  0  0
  128.3437  121.4385   86.7223 H   0  0  0  0  0  0  0  0  0  0  0  0
  123.8503  121.4556   89.3882 H   0  0  0  0  0  0  0  0  0  0  0  0
  122.1239  121.4585   91.1901 H   0  0  0  0  0  0  0  0  0  0  0  0
  1  2  1  0
  2  3  1  0
  3  4  1  0
  4  5  1  0
  5  6  1  0
  6  7  2  0
  7  8  1  0
  8  9  2  0
  9 10  1  0
 10 11  1  0
 11 12  1  0
 12 13  1  0
 13 14  1  0
 14 15  2  0
 14 16  1  0
 16 17  1  0
  9 18  1  0
 18 19  2  0
 19  6  1  0
  1 20  1  0
  1 21  1  0
  1 22  1  0
  2 23  1  0
  2 24  1  0
  3 25  1  0
  3 26  1  0
  4 27  1  0
  4 28  1  0
  7 29  1  0
  8 30  1  0
 11 31  1  0
 11 32  1  0
 12 33  1  0
 12 34  1  0
 13 35  1  0
 16 36  1  0
 16 37  1  0
 17 38  1  0
 17 39  1  0
 17 40  1  0
 18 41  1  0
 19 42  1  0
M  END
>  <loss>  (12) 
1.0048670768737793

>  <score>  (12) 
-2.9314472675323486

$$$$
KIFKUMPVMHUQKG-UHFFFAOYSA-N
     RDKit          3D

 42 42  0  0  0  0  0  0  0  0999 V2000
  126.4430  124.8361   91.9492 C   0  0  0  0  0  0  0  0  0  0  0  0
  125.4698  123.7060   92.2463 C   0  0  0  0  0  0  0  0  0  0  0  0
  125.9171  122.3967   91.5918 C   0  0  0  0  0  0  0  0  0  0  0  0
  125.2156  121.1787   92.1951 C   0  0  0  0  0  0  0  0  0  0  0  0
  123.8128  121.1881   91.9359 O   0  0  0  0  0  0  0  0  0  0  0  0
  123.3740  121.3529   90.6536 C   0  0  0  0  0  0  0  0  0  0  0  0
  123.8721  120.7202   89.5162 C   0  0  0  0  0  0  0  0  0  0  0  0
  123.3234  120.9899   88.2529 C   0  0  0  0  0  0  0  0  0  0  0  0
  122.2739  121.8971   88.1168 C   0  0  0  0  0  0  0  0  0  0  0  0
  121.6453  122.2478   86.9561 O   0  0  0  0  0  0  0  0  0  0  0  0
  122.4376  122.5400   85.8021 C   0  0  0  0  0  0  0  0  0  0  0  0
  122.6361  121.2841   84.9471 C   0  0  0  0  0  0  0  0  0  0  0  0
  123.7804  121.3576   84.0556 N   0  0  0  0  0  0  0  0  0  0  0  0
  124.7509  122.3263   84.2062 C   0  0  0  0  0  0  0  0  0  0  0  0
  125.7051  122.2093   84.9651 O   0  0  0  0  0  0  0  0  0  0  0  0
  124.5133  123.5375   83.3256 C   0  0  0  0  0  0  0  0  0  0  0  0
  125.6977  124.4872   83.3163 C   0  0  0  0  0  0  0  0  0  0  0  0
  121.7774  122.5294   89.2569 C   0  0  0  0  0  0  0  0  0  0  0  0
  122.3235  122.2604   90.5142 C   0  0  0  0  0  0  0  0  0  0  0  0
  126.8099  125.2621   92.8947 H   0  0  0  0  0  0  0  0  0  0  0  0
  127.2921  124.4457   91.3690 H   0  0  0  0  0  0  0  0  0  0  0  0
  125.9310  125.6179   91.3690 H   0  0  0  0  0  0  0  0  0  0  0  0
  125.4121  123.5603   93.3350 H   0  0  0  0  0  0  0  0  0  0  0  0
  124.4864  123.9794   91.8362 H   0  0  0  0  0  0  0  0  0  0  0  0
  125.6871  122.4414   90.5170 H   0  0  0  0  0  0  0  0  0  0  0  0
  126.9974  122.2844   91.7662 H   0  0  0  0  0  0  0  0  0  0  0  0
  125.6510  120.2666   91.7608 H   0  0  0  0  0  0  0  0  0  0  0  0
  125.3603  121.2081   93.2851 H   0  0  0  0  0  0  0  0  0  0  0  0
  124.7017  120.0040   89.6092 H   0  0  0  0  0  0  0  0  0  0  0  0
  123.7245  120.4816   87.3637 H   0  0  0  0  0  0  0  0  0  0  0  0
  121.9300  123.3090   85.2012 H   0  0  0  0  0  0  0  0  0  0  0  0
  123.4226  122.9012   86.1326 H   0  0  0  0  0  0  0  0  0  0  0  0
  122.7749  120.4248   85.6197 H   0  0  0  0  0  0  0  0  0  0  0  0
  121.7423  121.1826   84.3139 H   0  0  0  0  0  0  0  0  0  0  0  0
  123.8694  120.6705   83.2935 H   0  0  0  0  0  0  0  0  0  0  0  0
  124.3268  123.1953   82.2970 H   0  0  0  0  0  0  0  0  0  0  0  0
  123.6489  124.0832   83.7317 H   0  0  0  0  0  0  0  0  0  0  0  0
  125.9887  124.7205   84.3512 H   0  0  0  0  0  0  0  0  0  0  0  0
  126.5431  124.0138   82.7956 H   0  0  0  0  0  0  0  0  0  0  0  0
  125.4195  125.4153   82.7956 H   0  0  0  0  0  0  0  0  0  0  0  0
  120.9483  123.2465   89.1650 H   0  0  0  0  0  0  0  0  0  0  0  0
  121.9215  122.7690   91.4029 H   0  0  0  0  0  0  0  0  0  0  0  0
  1  2  1  0
  2  3  1  0
  3  4  1  0
  4  5  1  0
  5  6  1  0
  6  7  2  0
  7  8  1  0
  8  9  2  0
  9 10  1  0
 10 11  1  0
 11 12  1  0
 12 13  1  0
 13 14  1  0
 14 15  2  0
 14 16  1  0
 16 17  1  0
  9 18  1  0
 18 19  2  0
 19  6  1  0
  1 20  1  0
  1 21  1  0
  1 22  1  0
  2 23  1  0
  2 24  1  0
  3 25  1  0
  3 26  1  0
  4 27  1  0
  4 28  1  0
  7 29  1  0
  8 30  1  0
 11 31  1  0
 11 32  1  0
 12 33  1  0
 12 34  1  0
 13 35  1  0
 16 36  1  0
 16 37  1  0
 17 38  1  0
 17 39  1  0
 17 40  1  0
 18 41  1  0
 19 42  1  0
M  END
>  <loss>  (13) 
1.241344928741455

>  <score>  (13) 
-2.0576565265655518

$$$$
KIFKUMPVMHUQKG-UHFFFAOYSA-N
     RDKit          3D

 42 42  0  0  0  0  0  0  0  0999 V2000
  119.1408  126.7762   90.8709 C   0  0  0  0  0  0  0  0  0  0  0  0
  120.0804  125.7430   91.4712 C   0  0  0  0  0  0  0  0  0  0  0  0
  119.7002  124.2888   91.1712 C   0  0  0  0  0  0  0  0  0  0  0  0
  120.3321  123.2643   92.1147 C   0  0  0  0  0  0  0  0  0  0  0  0
  120.3886  121.9969   91.4633 O   0  0  0  0  0  0  0  0  0  0  0  0
  121.0461  121.9363   90.2672 C   0  0  0  0  0  0  0  0  0  0  0  0
  120.4610  121.9790   89.0026 C   0  0  0  0  0  0  0  0  0  0  0  0
  121.2560  121.9091   87.8486 C   0  0  0  0  0  0  0  0  0  0  0  0
  122.6417  121.7967   87.9512 C   0  0  0  0  0  0  0  0  0  0  0  0
  123.5328  121.7266   86.9191 O   0  0  0  0  0  0  0  0  0  0  0  0
  123.2297  120.8981   85.7904 C   0  0  0  0  0  0  0  0  0  0  0  0
  123.1517  121.7294   84.5058 C   0  0  0  0  0  0  0  0  0  0  0  0
  123.8321  123.0072   84.6370 N   0  0  0  0  0  0  0  0  0  0  0  0
  125.2069  123.0750   84.7220 C   0  0  0  0  0  0  0  0  0  0  0  0
  125.8869  122.2213   85.2799 O   0  0  0  0  0  0  0  0  0  0  0  0
  125.7771  124.3091   84.0515 C   0  0  0  0  0  0  0  0  0  0  0  0
  126.7902  125.0260   84.9258 C   0  0  0  0  0  0  0  0  0  0  0  0
  123.2237  121.7562   89.2192 C   0  0  0  0  0  0  0  0  0  0  0  0
  122.4326  121.8262   90.3681 C   0  0  0  0  0  0  0  0  0  0  0  0
  118.6386  127.3284   91.6789 H   0  0  0  0  0  0  0  0  0  0  0  0
  119.7164  127.4782   90.2497 H   0  0  0  0  0  0  0  0  0  0  0  0
  118.3875  126.2697   90.2497 H   0  0  0  0  0  0  0  0  0  0  0  0
  121.0896  125.9236   91.0727 H   0  0  0  0  0  0  0  0  0  0  0  0
  120.0215  125.8631   92.5630 H   0  0  0  0  0  0  0  0  0  0  0  0
  118.6066  124.1965   91.2453 H   0  0  0  0  0  0  0  0  0  0  0  0
  120.0814  124.0655   90.1638 H   0  0  0  0  0  0  0  0  0  0  0  0
  121.3497  123.5871   92.3796 H   0  0  0  0  0  0  0  0  0  0  0  0
  119.7263  123.1823   93.0292 H   0  0  0  0  0  0  0  0  0  0  0  0
  119.3687  122.0682   88.9088 H   0  0  0  0  0  0  0  0  0  0  0  0
  120.7827  121.9433   86.8562 H   0  0  0  0  0  0  0  0  0  0  0  0
  124.0171  120.1379   85.6801 H   0  0  0  0  0  0  0  0  0  0  0  0
  122.2536  120.4194   85.9585 H   0  0  0  0  0  0  0  0  0  0  0  0
  123.6187  121.1617   83.6875 H   0  0  0  0  0  0  0  0  0  0  0  0
  122.0906  121.9314   84.2980 H   0  0  0  0  0  0  0  0  0  0  0  0
  123.2788  123.8755   84.6670 H   0  0  0  0  0  0  0  0  0  0  0  0
  126.2693  124.0072   83.1153 H   0  0  0  0  0  0  0  0  0  0  0  0
  124.9451  125.0036   83.8633 H   0  0  0  0  0  0  0  0  0  0  0  0
  126.5473  124.8541   85.9848 H   0  0  0  0  0  0  0  0  0  0  0  0
  127.7974  124.6385   84.7131 H   0  0  0  0  0  0  0  0  0  0  0  0
  126.7599  126.1048   84.7131 H   0  0  0  0  0  0  0  0  0  0  0  0
  124.3160  121.6682   89.3145 H   0  0  0  0  0  0  0  0  0  0  0  0
  122.9068  121.7943   91.3601 H   0  0  0  0  0  0  0  0  0  0  0  0
  1  2  1  0
  2  3  1  0
  3  4  1  0
  4  5  1  0
  5  6  1  0
  6  7  2  0
  7  8  1  0
  8  9  2  0
  9 10  1  0
 10 11  1  0
 11 12  1  0
 12 13  1  0
 13 14  1  0
 14 15  2  0
 14 16  1  0
 16 17  1  0
  9 18  1  0
 18 19  2  0
 19  6  1  0
  1 20  1  0
  1 21  1  0
  1 22  1  0
  2 23  1  0
  2 24  1  0
  3 25  1  0
  3 26  1  0
  4 27  1  0
  4 28  1  0
  7 29  1  0
  8 30  1  0
 11 31  1  0
 11 32  1  0
 12 33  1  0
 12 34  1  0
 13 35  1  0
 16 36  1  0
 16 37  1  0
 17 38  1  0
 17 39  1  0
 17 40  1  0
 18 41  1  0
 19 42  1  0
M  END
>  <loss>  (14) 
0.9549203515052795

>  <score>  (14) 
-4.087989807128906

$$$$
KIFKUMPVMHUQKG-UHFFFAOYSA-N
     RDKit          3D

 42 42  0  0  0  0  0  0  0  0999 V2000
  126.1019  124.9345   91.8880 C   0  0  0  0  0  0  0  0  0  0  0  0
  125.9409  123.4656   92.2446 C   0  0  0  0  0  0  0  0  0  0  0  0
  124.4889  122.9756   92.2777 C   0  0  0  0  0  0  0  0  0  0  0  0
  124.3316  121.4602   92.1453 C   0  0  0  0  0  0  0  0  0  0  0  0
  122.9863  121.1567   91.7825 O   0  0  0  0  0  0  0  0  0  0  0  0
  122.6125  121.4118   90.4933 C   0  0  0  0  0  0  0  0  0  0  0  0
  121.5059  122.1569   90.0886 C   0  0  0  0  0  0  0  0  0  0  0  0
  121.2357  122.3451   88.7247 C   0  0  0  0  0  0  0  0  0  0  0  0
  122.0705  121.7901   87.7560 C   0  0  0  0  0  0  0  0  0  0  0  0
  121.9327  121.8979   86.4019 O   0  0  0  0  0  0  0  0  0  0  0  0
  121.6820  123.1856   85.8263 C   0  0  0  0  0  0  0  0  0  0  0  0
  122.8718  123.6479   84.9790 C   0  0  0  0  0  0  0  0  0  0  0  0
  124.1045  122.9722   85.3490 N   0  0  0  0  0  0  0  0  0  0  0  0
  125.0176  122.5842   84.3911 C   0  0  0  0  0  0  0  0  0  0  0  0
  125.7244  121.5890   84.5029 O   0  0  0  0  0  0  0  0  0  0  0  0
  125.0459  123.5148   83.1949 C   0  0  0  0  0  0  0  0  0  0  0  0
  125.4296  122.7973   81.9133 C   0  0  0  0  0  0  0  0  0  0  0  0
  123.1784  121.0465   88.1654 C   0  0  0  0  0  0  0  0  0  0  0  0
  123.4480  120.8593   89.5231 C   0  0  0  0  0  0  0  0  0  0  0  0
  126.1673  125.5306   92.8102 H   0  0  0  0  0  0  0  0  0  0  0  0
  127.0203  125.0700   91.2979 H   0  0  0  0  0  0  0  0  0  0  0  0
  125.2347  125.2657   91.2979 H   0  0  0  0  0  0  0  0  0  0  0  0
  126.4880  122.8691   91.4997 H   0  0  0  0  0  0  0  0  0  0  0  0
  126.3350  123.3459   93.2646 H   0  0  0  0  0  0  0  0  0  0  0  0
  124.0427  123.2858   93.2341 H   0  0  0  0  0  0  0  0  0  0  0  0
  123.9868  123.4213   91.4064 H   0  0  0  0  0  0  0  0  0  0  0  0
  125.0150  121.0861   91.3687 H   0  0  0  0  0  0  0  0  0  0  0  0
  124.5723  120.9791   93.1047 H   0  0  0  0  0  0  0  0  0  0  0  0
  120.8402  122.6003   90.8436 H   0  0  0  0  0  0  0  0  0  0  0  0
  120.3592  122.9346   88.4177 H   0  0  0  0  0  0  0  0  0  0  0  0
  120.7874  123.1269   85.1890 H   0  0  0  0  0  0  0  0  0  0  0  0
  121.5280  123.9097   86.6399 H   0  0  0  0  0  0  0  0  0  0  0  0
  122.6564  123.4376   83.9210 H   0  0  0  0  0  0  0  0  0  0  0  0
  123.0118  124.7251   85.1523 H   0  0  0  0  0  0  0  0  0  0  0  0
  124.2990  122.7803   86.3421 H   0  0  0  0  0  0  0  0  0  0  0  0
  124.0467  123.9565   83.0671 H   0  0  0  0  0  0  0  0  0  0  0  0
  125.8057  124.2865   83.3879 H   0  0  0  0  0  0  0  0  0  0  0  0
  125.9351  121.8519   82.1596 H   0  0  0  0  0  0  0  0  0  0  0  0
  124.5238  122.5865   81.3258 H   0  0  0  0  0  0  0  0  0  0  0  0
  126.1079  123.4335   81.3258 H   0  0  0  0  0  0  0  0  0  0  0  0
  123.8458  120.6034   87.4115 H   0  0  0  0  0  0  0  0  0  0  0  0
  124.3260  120.2717   89.8293 H   0  0  0  0  0  0  0  0  0  0  0  0
  1  2  1  0
  2  3  1  0
  3  4  1  0
  4  5  1  0
  5  6  1  0
  6  7  2  0
  7  8  1  0
  8  9  2  0
  9 10  1  0
 10 11  1  0
 11 12  1  0
 12 13  1  0
 13 14  1  0
 14 15  2  0
 14 16  1  0
 16 17  1  0
  9 18  1  0
 18 19  2  0
 19  6  1  0
  1 20  1  0
  1 21  1  0
  1 22  1  0
  2 23  1  0
  2 24  1  0
  3 25  1  0
  3 26  1  0
  4 27  1  0
  4 28  1  0
  7 29  1  0
  8 30  1  0
 11 31  1  0
 11 32  1  0
 12 33  1  0
 12 34  1  0
 13 35  1  0
 16 36  1  0
 16 37  1  0
 17 38  1  0
 17 39  1  0
 17 40  1  0
 18 41  1  0
 19 42  1  0
M  END
>  <loss>  (15) 
1.1945360898971558

>  <score>  (15) 
-4.195399761199951

$$$$
KIFKUMPVMHUQKG-UHFFFAOYSA-N
     RDKit          3D

 42 42  0  0  0  0  0  0  0  0999 V2000
  125.9655  124.3000   92.4980 C   0  0  0  0  0  0  0  0  0  0  0  0
  126.8050  123.2942   91.7261 C   0  0  0  0  0  0  0  0  0  0  0  0
  126.0490  122.0147   91.3726 C   0  0  0  0  0  0  0  0  0  0  0  0
  124.9103  121.6891   92.3374 C   0  0  0  0  0  0  0  0  0  0  0  0
  124.0430  120.7590   91.6867 O   0  0  0  0  0  0  0  0  0  0  0  0
  123.3640  121.2052   90.5877 C   0  0  0  0  0  0  0  0  0  0  0  0
  122.1169  121.8255   90.5874 C   0  0  0  0  0  0  0  0  0  0  0  0
  121.5390  122.2325   89.3794 C   0  0  0  0  0  0  0  0  0  0  0  0
  122.1938  122.0270   88.1620 C   0  0  0  0  0  0  0  0  0  0  0  0
  121.5115  122.4821   87.0686 O   0  0  0  0  0  0  0  0  0  0  0  0
  121.6841  121.7947   85.8282 C   0  0  0  0  0  0  0  0  0  0  0  0
  122.4007  122.6797   84.8044 C   0  0  0  0  0  0  0  0  0  0  0  0
  123.4604  121.9875   84.0960 N   0  0  0  0  0  0  0  0  0  0  0  0
  124.7507  122.4724   84.0844 C   0  0  0  0  0  0  0  0  0  0  0  0
  125.6939  121.8724   84.5866 O   0  0  0  0  0  0  0  0  0  0  0  0
  124.8737  123.8071   83.3769 C   0  0  0  0  0  0  0  0  0  0  0  0
  126.2451  124.4330   83.5592 C   0  0  0  0  0  0  0  0  0  0  0  0
  123.4415  121.4075   88.1635 C   0  0  0  0  0  0  0  0  0  0  0  0
  124.0198  121.0015   89.3719 C   0  0  0  0  0  0  0  0  0  0  0  0
  126.1004  124.1383   93.5777 H   0  0  0  0  0  0  0  0  0  0  0  0
  126.2838  125.3202   92.2374 H   0  0  0  0  0  0  0  0  0  0  0  0
  124.9048  124.1691   92.2374 H   0  0  0  0  0  0  0  0  0  0  0  0
  127.1446  123.7673   90.7928 H   0  0  0  0  0  0  0  0  0  0  0  0
  127.6441  123.0057   92.3762 H   0  0  0  0  0  0  0  0  0  0  0  0
  125.6274  122.1278   90.3629 H   0  0  0  0  0  0  0  0  0  0  0  0
  126.7706  121.1867   91.4351 H   0  0  0  0  0  0  0  0  0  0  0  0
  125.3150  121.2433   93.2580 H   0  0  0  0  0  0  0  0  0  0  0  0
  124.3616  122.6031   92.6086 H   0  0  0  0  0  0  0  0  0  0  0  0
  121.5865  121.9954   91.5360 H   0  0  0  0  0  0  0  0  0  0  0  0
  120.5539  122.7219   89.3884 H   0  0  0  0  0  0  0  0  0  0  0  0
  122.2818  120.8874   86.0001 H   0  0  0  0  0  0  0  0  0  0  0  0
  120.6918  121.5337   85.4317 H   0  0  0  0  0  0  0  0  0  0  0  0
  121.6621  123.0338   84.0702 H   0  0  0  0  0  0  0  0  0  0  0  0
  122.8640  123.5106   85.3567 H   0  0  0  0  0  0  0  0  0  0  0  0
  123.2444  121.1160   83.5913 H   0  0  0  0  0  0  0  0  0  0  0  0
  124.6943  123.6554   82.3023 H   0  0  0  0  0  0  0  0  0  0  0  0
  124.1316  124.4899   83.8163 H   0  0  0  0  0  0  0  0  0  0  0  0
  126.4630  124.5325   84.6328 H   0  0  0  0  0  0  0  0  0  0  0  0
  127.0058  123.7930   83.0884 H   0  0  0  0  0  0  0  0  0  0  0  0
  126.2599  125.4271   83.0884 H   0  0  0  0  0  0  0  0  0  0  0  0
  123.9722  121.2373   87.2152 H   0  0  0  0  0  0  0  0  0  0  0  0
  125.0060  120.5144   89.3636 H   0  0  0  0  0  0  0  0  0  0  0  0
  1  2  1  0
  2  3  1  0
  3  4  1  0
  4  5  1  0
  5  6  1  0
  6  7  2  0
  7  8  1  0
  8  9  2  0
  9 10  1  0
 10 11  1  0
 11 12  1  0
 12 13  1  0
 13 14  1  0
 14 15  2  0
 14 16  1  0
 16 17  1  0
  9 18  1  0
 18 19  2  0
 19  6  1  0
  1 20  1  0
  1 21  1  0
  1 22  1  0
  2 23  1  0
  2 24  1  0
  3 25  1  0
  3 26  1  0
  4 27  1  0
  4 28  1  0
  7 29  1  0
  8 30  1  0
 11 31  1  0
 11 32  1  0
 12 33  1  0
 12 34  1  0
 13 35  1  0
 16 36  1  0
 16 37  1  0
 17 38  1  0
 17 39  1  0
 17 40  1  0
 18 41  1  0
 19 42  1  0
M  END
>  <loss>  (16) 
1.2646081447601318

>  <score>  (16) 
-5.069636344909668

$$$$
KIFKUMPVMHUQKG-UHFFFAOYSA-N
     RDKit          3D

 42 42  0  0  0  0  0  0  0  0999 V2000
  119.4481  127.2289   89.5907 C   0  0  0  0  0  0  0  0  0  0  0  0
  120.0354  126.3195   90.6587 C   0  0  0  0  0  0  0  0  0  0  0  0
  119.4204  124.9192   90.6001 C   0  0  0  0  0  0  0  0  0  0  0  0
  120.1329  123.9352   91.5279 C   0  0  0  0  0  0  0  0  0  0  0  0
  120.0149  122.6210   90.9847 O   0  0  0  0  0  0  0  0  0  0  0  0
  121.0174  122.1940   90.1598 C   0  0  0  0  0  0  0  0  0  0  0  0
  120.7118  122.2366   88.7992 C   0  0  0  0  0  0  0  0  0  0  0  0
  121.6494  121.8277   87.8480 C   0  0  0  0  0  0  0  0  0  0  0  0
  122.9060  121.3684   88.2438 C   0  0  0  0  0  0  0  0  0  0  0  0
  123.7304  121.0000   87.2176 O   0  0  0  0  0  0  0  0  0  0  0  0
  125.1406  121.0569   87.4637 C   0  0  0  0  0  0  0  0  0  0  0  0
  125.8578  121.0910   86.1116 C   0  0  0  0  0  0  0  0  0  0  0  0
  124.9786  121.5119   85.0329 N   0  0  0  0  0  0  0  0  0  0  0  0
  125.0531  122.7876   84.5138 C   0  0  0  0  0  0  0  0  0  0  0  0
  125.8080  123.6472   84.9541 O   0  0  0  0  0  0  0  0  0  0  0  0
  124.1073  123.0047   83.3493 C   0  0  0  0  0  0  0  0  0  0  0  0
  124.3726  124.3124   82.6254 C   0  0  0  0  0  0  0  0  0  0  0  0
  123.2138  121.3239   89.6033 C   0  0  0  0  0  0  0  0  0  0  0  0
  122.2724  121.7352   90.5581 C   0  0  0  0  0  0  0  0  0  0  0  0
  118.9114  128.0600   90.0714 H   0  0  0  0  0  0  0  0  0  0  0  0
  120.2586  127.6294   88.9640 H   0  0  0  0  0  0  0  0  0  0  0  0
  118.7496  126.6550   88.9640 H   0  0  0  0  0  0  0  0  0  0  0  0
  121.1215  126.2402   90.5034 H   0  0  0  0  0  0  0  0  0  0  0  0
  119.8125  126.7544   91.6442 H   0  0  0  0  0  0  0  0  0  0  0  0
  118.3633  124.9840   90.8973 H   0  0  0  0  0  0  0  0  0  0  0  0
  119.5253  124.5477   89.5701 H   0  0  0  0  0  0  0  0  0  0  0  0
  121.1956  124.2073   91.6091 H   0  0  0  0  0  0  0  0  0  0  0  0
  119.6760  123.9679   92.5280 H   0  0  0  0  0  0  0  0  0  0  0  0
  119.7244  122.5950   88.4729 H   0  0  0  0  0  0  0  0  0  0  0  0
  121.3952  121.8682   86.7786 H   0  0  0  0  0  0  0  0  0  0  0  0
  125.3828  121.9637   88.0373 H   0  0  0  0  0  0  0  0  0  0  0  0
  125.4621  120.1794   88.0438 H   0  0  0  0  0  0  0  0  0  0  0  0
  126.7012  121.7943   86.1758 H   0  0  0  0  0  0  0  0  0  0  0  0
  126.2027  120.0709   85.8870 H   0  0  0  0  0  0  0  0  0  0  0  0
  124.2901  120.8479   84.6508 H   0  0  0  0  0  0  0  0  0  0  0  0
  124.2279  122.1755   82.6367 H   0  0  0  0  0  0  0  0  0  0  0  0
  123.0840  123.0449   83.7509 H   0  0  0  0  0  0  0  0  0  0  0  0
  124.5350  125.1130   83.3621 H   0  0  0  0  0  0  0  0  0  0  0  0
  125.2677  124.2073   81.9947 H   0  0  0  0  0  0  0  0  0  0  0  0
  123.5073  124.5645   81.9947 H   0  0  0  0  0  0  0  0  0  0  0  0
  124.2010  120.9640   89.9287 H   0  0  0  0  0  0  0  0  0  0  0  0
  122.5258  121.6956   91.6278 H   0  0  0  0  0  0  0  0  0  0  0  0
  1  2  1  0
  2  3  1  0
  3  4  1  0
  4  5  1  0
  5  6  1  0
  6  7  2  0
  7  8  1  0
  8  9  2  0
  9 10  1  0
 10 11  1  0
 11 12  1  0
 12 13  1  0
 13 14  1  0
 14 15  2  0
 14 16  1  0
 16 17  1  0
  9 18  1  0
 18 19  2  0
 19  6  1  0
  1 20  1  0
  1 21  1  0
  1 22  1  0
  2 23  1  0
  2 24  1  0
  3 25  1  0
  3 26  1  0
  4 27  1  0
  4 28  1  0
  7 29  1  0
  8 30  1  0
 11 31  1  0
 11 32  1  0
 12 33  1  0
 12 34  1  0
 13 35  1  0
 16 36  1  0
 16 37  1  0
 17 38  1  0
 17 39  1  0
 17 40  1  0
 18 41  1  0
 19 42  1  0
M  END
>  <loss>  (17) 
0.9280543327331543

>  <score>  (17) 
-13.449963569641113

$$$$
KIFKUMPVMHUQKG-UHFFFAOYSA-N
     RDKit          3D

 42 42  0  0  0  0  0  0  0  0999 V2000
  120.0706  126.5341   90.9599 C   0  0  0  0  0  0  0  0  0  0  0  0
  119.9686  125.4558   92.0266 C   0  0  0  0  0  0  0  0  0  0  0  0
  120.6268  124.1247   91.6464 C   0  0  0  0  0  0  0  0  0  0  0  0
  119.8882  122.8856   92.1579 C   0  0  0  0  0  0  0  0  0  0  0  0
  120.2842  121.6957   91.4800 O   0  0  0  0  0  0  0  0  0  0  0  0
  120.9118  121.7950   90.2715 C   0  0  0  0  0  0  0  0  0  0  0  0
  122.2077  121.2777   90.2493 C   0  0  0  0  0  0  0  0  0  0  0  0
  122.9670  121.3091   89.0773 C   0  0  0  0  0  0  0  0  0  0  0  0
  122.4406  121.8568   87.9077 C   0  0  0  0  0  0  0  0  0  0  0  0
  123.2836  121.8288   86.8323 O   0  0  0  0  0  0  0  0  0  0  0  0
  122.7340  122.2015   85.5639 C   0  0  0  0  0  0  0  0  0  0  0  0
  123.8829  122.3374   84.5660 C   0  0  0  0  0  0  0  0  0  0  0  0
  124.9543  121.3971   84.8508 N   0  0  0  0  0  0  0  0  0  0  0  0
  126.0373  121.7694   85.6187 C   0  0  0  0  0  0  0  0  0  0  0  0
  126.1993  122.9052   86.0494 O   0  0  0  0  0  0  0  0  0  0  0  0
  126.9926  120.6212   85.8795 C   0  0  0  0  0  0  0  0  0  0  0  0
  127.8366  120.8415   87.1221 C   0  0  0  0  0  0  0  0  0  0  0  0
  121.1446  122.3709   87.9246 C   0  0  0  0  0  0  0  0  0  0  0  0
  120.3831  122.3392   89.1025 C   0  0  0  0  0  0  0  0  0  0  0  0
  120.1638  127.5187   91.4416 H   0  0  0  0  0  0  0  0  0  0  0  0
  120.9551  126.3474   90.3332 H   0  0  0  0  0  0  0  0  0  0  0  0
  119.1668  126.5166   90.3332 H   0  0  0  0  0  0  0  0  0  0  0  0
  120.4520  125.8298   92.9412 H   0  0  0  0  0  0  0  0  0  0  0  0
  118.8968  125.2486   92.1621 H   0  0  0  0  0  0  0  0  0  0  0  0
  120.6772  124.0668   90.5491 H   0  0  0  0  0  0  0  0  0  0  0  0
  121.6187  124.1177   92.1220 H   0  0  0  0  0  0  0  0  0  0  0  0
  120.0990  122.7671   93.2309 H   0  0  0  0  0  0  0  0  0  0  0  0
  118.8146  123.0355   91.9708 H   0  0  0  0  0  0  0  0  0  0  0  0
  122.6355  120.8409   91.1638 H   0  0  0  0  0  0  0  0  0  0  0  0
  123.9877  120.8988   89.0768 H   0  0  0  0  0  0  0  0  0  0  0  0
  122.0322  121.4273   85.2204 H   0  0  0  0  0  0  0  0  0  0  0  0
  122.1919  123.1547   85.6506 H   0  0  0  0  0  0  0  0  0  0  0  0
  123.4999  122.1458   83.5528 H   0  0  0  0  0  0  0  0  0  0  0  0
  124.2894  123.3563   84.6466 H   0  0  0  0  0  0  0  0  0  0  0  0
  124.9037  120.4398   84.4739 H   0  0  0  0  0  0  0  0  0  0  0  0
  126.4086  119.6979   86.0082 H   0  0  0  0  0  0  0  0  0  0  0  0
  127.6745  120.5501   85.0192 H   0  0  0  0  0  0  0  0  0  0  0  0
  127.2191  120.6803   88.0180 H   0  0  0  0  0  0  0  0  0  0  0  0
  128.6779  120.1329   87.1243 H   0  0  0  0  0  0  0  0  0  0  0  0
  128.2241  121.8710   87.1243 H   0  0  0  0  0  0  0  0  0  0  0  0
  120.7165  122.8041   87.0086 H   0  0  0  0  0  0  0  0  0  0  0  0
  119.3614  122.7468   89.1033 H   0  0  0  0  0  0  0  0  0  0  0  0
  1  2  1  0
  2  3  1  0
  3  4  1  0
  4  5  1  0
  5  6  1  0
  6  7  2  0
  7  8  1  0
  8  9  2  0
  9 10  1  0
 10 11  1  0
 11 12  1  0
 12 13  1  0
 13 14  1  0
 14 15  2  0
 14 16  1  0
 16 17  1  0
  9 18  1  0
 18 19  2  0
 19  6  1  0
  1 20  1  0
  1 21  1  0
  1 22  1  0
  2 23  1  0
  2 24  1  0
  3 25  1  0
  3 26  1  0
  4 27  1  0
  4 28  1  0
  7 29  1  0
  8 30  1  0
 11 31  1  0
 11 32  1  0
 12 33  1  0
 12 34  1  0
 13 35  1  0
 16 36  1  0
 16 37  1  0
 17 38  1  0
 17 39  1  0
 17 40  1  0
 18 41  1  0
 19 42  1  0
M  END
>  <loss>  (18) 
1.0939080715179443

>  <score>  (18) 
-12.727568626403809

$$$$
KIFKUMPVMHUQKG-UHFFFAOYSA-N
     RDKit          3D

 42 42  0  0  0  0  0  0  0  0999 V2000
  118.7652  126.1386   89.2917 C   0  0  0  0  0  0  0  0  0  0  0  0
  119.5678  125.9414   90.5681 C   0  0  0  0  0  0  0  0  0  0  0  0
  119.9466  124.4847   90.8296 C   0  0  0  0  0  0  0  0  0  0  0  0
  119.0792  123.4804   90.0726 C   0  0  0  0  0  0  0  0  0  0  0  0
  119.5958  122.1751   90.3371 O   0  0  0  0  0  0  0  0  0  0  0  0
  120.8619  121.9061   89.8982 C   0  0  0  0  0  0  0  0  0  0  0  0
  121.3304  122.0589   88.5955 C   0  0  0  0  0  0  0  0  0  0  0  0
  122.6590  121.7429   88.2891 C   0  0  0  0  0  0  0  0  0  0  0  0
  123.5332  121.2726   89.2728 C   0  0  0  0  0  0  0  0  0  0  0  0
  124.7991  121.0125   88.8275 O   0  0  0  0  0  0  0  0  0  0  0  0
  125.1597  121.4522   87.5170 C   0  0  0  0  0  0  0  0  0  0  0  0
  124.6158  120.4995   86.4485 C   0  0  0  0  0  0  0  0  0  0  0  0
  124.6161  121.0765   85.1177 N   0  0  0  0  0  0  0  0  0  0  0  0
  125.3118  122.2330   84.8378 C   0  0  0  0  0  0  0  0  0  0  0  0
  126.2999  122.5874   85.4702 O   0  0  0  0  0  0  0  0  0  0  0  0
  124.7344  123.0005   83.6653 C   0  0  0  0  0  0  0  0  0  0  0  0
  125.5214  124.2620   83.3571 C   0  0  0  0  0  0  0  0  0  0  0  0
  123.0639  121.1212   90.5756 C   0  0  0  0  0  0  0  0  0  0  0  0
  121.7354  121.4383   90.8821 C   0  0  0  0  0  0  0  0  0  0  0  0
  117.7263  126.3940   89.5476 H   0  0  0  0  0  0  0  0  0  0  0  0
  119.2087  126.9545   88.7020 H   0  0  0  0  0  0  0  0  0  0  0  0
  118.7800  125.2101   88.7020 H   0  0  0  0  0  0  0  0  0  0  0  0
  120.4918  126.5335   90.4936 H   0  0  0  0  0  0  0  0  0  0  0  0
  118.9313  126.2658   91.4045 H   0  0  0  0  0  0  0  0  0  0  0  0
  120.9936  124.3379   90.5258 H   0  0  0  0  0  0  0  0  0  0  0  0
  119.7916  124.2994   91.9027 H   0  0  0  0  0  0  0  0  0  0  0  0
  118.0376  123.5486   90.4195 H   0  0  0  0  0  0  0  0  0  0  0  0
  119.0983  123.6912   88.9932 H   0  0  0  0  0  0  0  0  0  0  0  0
  120.6567  122.4276   87.8080 H   0  0  0  0  0  0  0  0  0  0  0  0
  123.0208  121.8667   87.2577 H   0  0  0  0  0  0  0  0  0  0  0  0
  124.7447  122.4567   87.3479 H   0  0  0  0  0  0  0  0  0  0  0  0
  126.2571  121.4707   87.4436 H   0  0  0  0  0  0  0  0  0  0  0  0
  125.2394  119.5935   86.4373 H   0  0  0  0  0  0  0  0  0  0  0  0
  123.5705  120.2772   86.7091 H   0  0  0  0  0  0  0  0  0  0  0  0
  124.0856  120.6125   84.3665 H   0  0  0  0  0  0  0  0  0  0  0  0
  124.7457  122.3510   82.7776 H   0  0  0  0  0  0  0  0  0  0  0  0
  123.7101  123.3002   83.9317 H   0  0  0  0  0  0  0  0  0  0  0  0
  125.8229  124.7452   84.2981 H   0  0  0  0  0  0  0  0  0  0  0  0
  126.4177  124.0019   82.7749 H   0  0  0  0  0  0  0  0  0  0  0  0
  124.8937  124.9527   82.7749 H   0  0  0  0  0  0  0  0  0  0  0  0
  123.7372  120.7524   91.3634 H   0  0  0  0  0  0  0  0  0  0  0  0
  121.3740  121.3171   91.9139 H   0  0  0  0  0  0  0  0  0  0  0  0
  1  2  1  0
  2  3  1  0
  3  4  1  0
  4  5  1  0
  5  6  1  0
  6  7  2  0
  7  8  1  0
  8  9  2  0
  9 10  1  0
 10 11  1  0
 11 12  1  0
 12 13  1  0
 13 14  1  0
 14 15  2  0
 14 16  1  0
 16 17  1  0
  9 18  1  0
 18 19  2  0
 19  6  1  0
  1 20  1  0
  1 21  1  0
  1 22  1  0
  2 23  1  0
  2 24  1  0
  3 25  1  0
  3 26  1  0
  4 27  1  0
  4 28  1  0
  7 29  1  0
  8 30  1  0
 11 31  1  0
 11 32  1  0
 12 33  1  0
 12 34  1  0
 13 35  1  0
 16 36  1  0
 16 37  1  0
 17 38  1  0
 17 39  1  0
 17 40  1  0
 18 41  1  0
 19 42  1  0
M  END
>  <loss>  (19) 
0.9785743355751038

>  <score>  (19) 
-14.67751693725586

$$$$
KIFKUMPVMHUQKG-UHFFFAOYSA-N
     RDKit          3D

 42 42  0  0  0  0  0  0  0  0999 V2000
  123.5800  121.7664   81.8059 C   0  0  0  0  0  0  0  0  0  0  0  0
  123.2528  123.0127   82.6134 C   0  0  0  0  0  0  0  0  0  0  0  0
  124.5085  123.6096   83.2532 C   0  0  0  0  0  0  0  0  0  0  0  0
  124.1757  124.5640   84.3999 C   0  0  0  0  0  0  0  0  0  0  0  0
  122.8643  124.2698   84.8791 O   0  0  0  0  0  0  0  0  0  0  0  0
  122.7675  123.6529   86.0947 C   0  0  0  0  0  0  0  0  0  0  0  0
  121.7042  122.7573   86.2118 C   0  0  0  0  0  0  0  0  0  0  0  0
  121.4921  122.0593   87.4030 C   0  0  0  0  0  0  0  0  0  0  0  0
  122.3391  122.2483   88.4953 C   0  0  0  0  0  0  0  0  0  0  0  0
  122.0245  121.5060   89.5991 O   0  0  0  0  0  0  0  0  0  0  0  0
  123.0062  121.4406   90.6405 C   0  0  0  0  0  0  0  0  0  0  0  0
  123.4308  119.9786   90.8020 C   0  0  0  0  0  0  0  0  0  0  0  0
  124.1484  119.4824   89.6389 N   0  0  0  0  0  0  0  0  0  0  0  0
  125.5193  119.3328   89.6617 C   0  0  0  0  0  0  0  0  0  0  0  0
  126.2940  120.2743   89.7885 O   0  0  0  0  0  0  0  0  0  0  0  0
  125.9557  117.8887   89.5149 C   0  0  0  0  0  0  0  0  0  0  0  0
  127.2538  117.7532   88.7395 C   0  0  0  0  0  0  0  0  0  0  0  0
  123.4022  123.1437   88.3814 C   0  0  0  0  0  0  0  0  0  0  0  0
  123.6155  123.8438   87.1850 C   0  0  0  0  0  0  0  0  0  0  0  0
  123.7988  120.9332   82.4899 H   0  0  0  0  0  0  0  0  0  0  0  0
  122.7203  121.5041   81.1718 H   0  0  0  0  0  0  0  0  0  0  0  0
  124.4577  121.9603   81.1718 H   0  0  0  0  0  0  0  0  0  0  0  0
  122.7998  123.7619   81.9474 H   0  0  0  0  0  0  0  0  0  0  0  0
  122.5556  122.7315   83.4164 H   0  0  0  0  0  0  0  0  0  0  0  0
  125.1305  122.7906   83.6435 H   0  0  0  0  0  0  0  0  0  0  0  0
  125.0404  124.1837   82.4802 H   0  0  0  0  0  0  0  0  0  0  0  0
  124.9044  124.4324   85.2133 H   0  0  0  0  0  0  0  0  0  0  0  0
  124.2183  125.6040   84.0440 H   0  0  0  0  0  0  0  0  0  0  0  0
  121.0275  122.5995   85.3591 H   0  0  0  0  0  0  0  0  0  0  0  0
  120.6506  121.3551   87.4804 H   0  0  0  0  0  0  0  0  0  0  0  0
  123.8781  122.0544   90.3702 H   0  0  0  0  0  0  0  0  0  0  0  0
  122.5879  121.8225   91.5835 H   0  0  0  0  0  0  0  0  0  0  0  0
  124.0838  119.8948   91.6832 H   0  0  0  0  0  0  0  0  0  0  0  0
  122.5195  119.3738   90.9193 H   0  0  0  0  0  0  0  0  0  0  0  0
  123.6254  119.2390   88.7856 H   0  0  0  0  0  0  0  0  0  0  0  0
  126.0964  117.4584   90.5175 H   0  0  0  0  0  0  0  0  0  0  0  0
  125.1729  117.3566   88.9546 H   0  0  0  0  0  0  0  0  0  0  0  0
  128.0942  117.6655   89.4439 H   0  0  0  0  0  0  0  0  0  0  0  0
  127.2107  116.8547   88.1065 H   0  0  0  0  0  0  0  0  0  0  0  0
  127.3971  118.6413   88.1065 H   0  0  0  0  0  0  0  0  0  0  0  0
  124.0776  123.3018   89.2351 H   0  0  0  0  0  0  0  0  0  0  0  0
  124.4570  124.5479   87.1062 H   0  0  0  0  0  0  0  0  0  0  0  0
  1  2  1  0
  2  3  1  0
  3  4  1  0
  4  5  1  0
  5  6  1  0
  6  7  2  0
  7  8  1  0
  8  9  2  0
  9 10  1  0
 10 11  1  0
 11 12  1  0
 12 13  1  0
 13 14  1  0
 14 15  2  0
 14 16  1  0
 16 17  1  0
  9 18  1  0
 18 19  2  0
 19  6  1  0
  1 20  1  0
  1 21  1  0
  1 22  1  0
  2 23  1  0
  2 24  1  0
  3 25  1  0
  3 26  1  0
  4 27  1  0
  4 28  1  0
  7 29  1  0
  8 30  1  0
 11 31  1  0
 11 32  1  0
 12 33  1  0
 12 34  1  0
 13 35  1  0
 16 36  1  0
 16 37  1  0
 17 38  1  0
 17 39  1  0
 17 40  1  0
 18 41  1  0
 19 42  1  0
M  END
>  <loss>  (20) 
1.3299602270126343

>  <score>  (20) 
-12.950434684753418

$$$$
KIFKUMPVMHUQKG-UHFFFAOYSA-N
     RDKit          3D

 42 42  0  0  0  0  0  0  0  0999 V2000
  120.3787  126.9394   91.2353 C   0  0  0  0  0  0  0  0  0  0  0  0
  120.9523  125.8668   92.1473 C   0  0  0  0  0  0  0  0  0  0  0  0
  121.0283  124.4725   91.5152 C   0  0  0  0  0  0  0  0  0  0  0  0
  120.4483  123.3529   92.3826 C   0  0  0  0  0  0  0  0  0  0  0  0
  120.3438  122.1167   91.6803 O   0  0  0  0  0  0  0  0  0  0  0  0
  120.9203  121.9999   90.4482 C   0  0  0  0  0  0  0  0  0  0  0  0
  122.2416  121.5509   90.4687 C   0  0  0  0  0  0  0  0  0  0  0  0
  122.9546  121.3813   89.2796 C   0  0  0  0  0  0  0  0  0  0  0  0
  122.3559  121.6562   88.0503 C   0  0  0  0  0  0  0  0  0  0  0  0
  123.1594  121.4519   86.9638 O   0  0  0  0  0  0  0  0  0  0  0  0
  122.9084  122.2580   85.8075 C   0  0  0  0  0  0  0  0  0  0  0  0
  124.1753  122.2774   84.9536 C   0  0  0  0  0  0  0  0  0  0  0  0
  125.2037  121.4078   85.5007 N   0  0  0  0  0  0  0  0  0  0  0  0
  126.2689  121.9275   86.2053 C   0  0  0  0  0  0  0  0  0  0  0  0
  126.4193  123.1259   86.4126 O   0  0  0  0  0  0  0  0  0  0  0  0
  127.2204  120.8568   86.7026 C   0  0  0  0  0  0  0  0  0  0  0  0
  128.3326  121.4262   87.5647 C   0  0  0  0  0  0  0  0  0  0  0  0
  121.0346  122.1010   88.0253 C   0  0  0  0  0  0  0  0  0  0  0  0
  120.3197  122.2714   89.2202 C   0  0  0  0  0  0  0  0  0  0  0  0
  119.9470  127.7467   91.8451 H   0  0  0  0  0  0  0  0  0  0  0  0
  121.1791  127.3473   90.6004 H   0  0  0  0  0  0  0  0  0  0  0  0
  119.5951  126.5002   90.6004 H   0  0  0  0  0  0  0  0  0  0  0  0
  121.9696  126.1693   92.4366 H   0  0  0  0  0  0  0  0  0  0  0  0
  120.2687  125.7858   93.0052 H   0  0  0  0  0  0  0  0  0  0  0  0
  120.4736  124.4945   90.5655 H   0  0  0  0  0  0  0  0  0  0  0  0
  122.0964  124.2456   91.3825 H   0  0  0  0  0  0  0  0  0  0  0  0
  121.1017  123.2085   93.2557 H   0  0  0  0  0  0  0  0  0  0  0  0
  119.4336  123.6539   92.6824 H   0  0  0  0  0  0  0  0  0  0  0  0
  122.7262  121.3284   91.4308 H   0  0  0  0  0  0  0  0  0  0  0  0
  123.9959  121.0284   89.3130 H   0  0  0  0  0  0  0  0  0  0  0  0
  122.0763  121.8303   85.2290 H   0  0  0  0  0  0  0  0  0  0  0  0
  122.6384  123.2808   86.1091 H   0  0  0  0  0  0  0  0  0  0  0  0
  123.9256  121.9392   83.9371 H   0  0  0  0  0  0  0  0  0  0  0  0
  124.5656  123.3057   84.9413 H   0  0  0  0  0  0  0  0  0  0  0  0
  125.1358  120.3897   85.3600 H   0  0  0  0  0  0  0  0  0  0  0  0
  126.6513  120.1267   87.2969 H   0  0  0  0  0  0  0  0  0  0  0  0
  127.6848  120.3862   85.8234 H   0  0  0  0  0  0  0  0  0  0  0  0
  128.0770  121.2954   88.6266 H   0  0  0  0  0  0  0  0  0  0  0  0
  129.2727  120.8985   87.3461 H   0  0  0  0  0  0  0  0  0  0  0  0
  128.4541  122.4974   87.3461 H   0  0  0  0  0  0  0  0  0  0  0  0
  120.5498  122.3197   87.0624 H   0  0  0  0  0  0  0  0  0  0  0  0
  119.2775  122.6218   89.1878 H   0  0  0  0  0  0  0  0  0  0  0  0
  1  2  1  0
  2  3  1  0
  3  4  1  0
  4  5  1  0
  5  6  1  0
  6  7  2  0
  7  8  1  0
  8  9  2  0
  9 10  1  0
 10 11  1  0
 11 12  1  0
 12 13  1  0
 13 14  1  0
 14 15  2  0
 14 16  1  0
 16 17  1  0
  9 18  1  0
 18 19  2  0
 19  6  1  0
  1 20  1  0
  1 21  1  0
  1 22  1  0
  2 23  1  0
  2 24  1  0
  3 25  1  0
  3 26  1  0
  4 27  1  0
  4 28  1  0
  7 29  1  0
  8 30  1  0
 11 31  1  0
 11 32  1  0
 12 33  1  0
 12 34  1  0
 13 35  1  0
 16 36  1  0
 16 37  1  0
 17 38  1  0
 17 39  1  0
 17 40  1  0
 18 41  1  0
 19 42  1  0
M  END
>  <loss>  (21) 
1.0940388441085815

>  <score>  (21) 
-17.576181411743164

$$$$
KIFKUMPVMHUQKG-UHFFFAOYSA-N
     RDKit          3D

 42 42  0  0  0  0  0  0  0  0999 V2000
  124.3942  126.9609   90.5284 C   0  0  0  0  0  0  0  0  0  0  0  0
  125.3839  127.6356   89.5924 C   0  0  0  0  0  0  0  0  0  0  0  0
  126.6739  126.8430   89.3538 C   0  0  0  0  0  0  0  0  0  0  0  0
  126.4692  125.5045   88.6427 C   0  0  0  0  0  0  0  0  0  0  0  0
  125.9224  124.5619   89.5626 O   0  0  0  0  0  0  0  0  0  0  0  0
  125.0208  123.6596   89.0729 C   0  0  0  0  0  0  0  0  0  0  0  0
  124.3370  123.7529   87.8616 C   0  0  0  0  0  0  0  0  0  0  0  0
  123.4350  122.7502   87.4752 C   0  0  0  0  0  0  0  0  0  0  0  0
  123.2109  121.6468   88.2971 C   0  0  0  0  0  0  0  0  0  0  0  0
  122.3718  120.5994   88.0454 O   0  0  0  0  0  0  0  0  0  0  0  0
  121.3663  120.7382   87.0345 C   0  0  0  0  0  0  0  0  0  0  0  0
  121.8526  121.6445   85.8989 C   0  0  0  0  0  0  0  0  0  0  0  0
  123.2233  121.3528   85.5128 N   0  0  0  0  0  0  0  0  0  0  0  0
  123.5080  120.3644   84.5941 C   0  0  0  0  0  0  0  0  0  0  0  0
  122.6442  119.6853   84.0508 O   0  0  0  0  0  0  0  0  0  0  0  0
  124.9935  120.2162   84.3314 C   0  0  0  0  0  0  0  0  0  0  0  0
  125.2922  119.1648   83.2779 C   0  0  0  0  0  0  0  0  0  0  0  0
  123.8989  121.5561   89.5081 C   0  0  0  0  0  0  0  0  0  0  0  0
  124.7973  122.5540   89.8928 C   0  0  0  0  0  0  0  0  0  0  0  0
  124.6832  127.1579   91.5714 H   0  0  0  0  0  0  0  0  0  0  0  0
  123.3858  127.3604   90.3456 H   0  0  0  0  0  0  0  0  0  0  0  0
  124.3976  125.8762   90.3456 H   0  0  0  0  0  0  0  0  0  0  0  0
  124.8897  127.7881   88.6216 H   0  0  0  0  0  0  0  0  0  0  0  0
  125.6804  128.5778   90.0765 H   0  0  0  0  0  0  0  0  0  0  0  0
  127.3480  127.4590   88.7405 H   0  0  0  0  0  0  0  0  0  0  0  0
  127.0890  126.6117   90.3459 H   0  0  0  0  0  0  0  0  0  0  0  0
  125.7767  125.6387   87.7987 H   0  0  0  0  0  0  0  0  0  0  0  0
  127.4347  125.1353   88.2665 H   0  0  0  0  0  0  0  0  0  0  0  0
  124.5059  124.6186   87.2043 H   0  0  0  0  0  0  0  0  0  0  0  0
  122.9010  122.8353   86.5173 H   0  0  0  0  0  0  0  0  0  0  0  0
  121.1276  119.7453   86.6255 H   0  0  0  0  0  0  0  0  0  0  0  0
  120.4730  121.1924   87.4880 H   0  0  0  0  0  0  0  0  0  0  0  0
  121.2000  121.4992   85.0254 H   0  0  0  0  0  0  0  0  0  0  0  0
  121.8164  122.6839   86.2570 H   0  0  0  0  0  0  0  0  0  0  0  0
  123.9939  121.8927   85.9318 H   0  0  0  0  0  0  0  0  0  0  0  0
  125.3899  121.1831   83.9880 H   0  0  0  0  0  0  0  0  0  0  0  0
  125.4700  119.8960   85.2698 H   0  0  0  0  0  0  0  0  0  0  0  0
  125.5610  118.2185   83.7701 H   0  0  0  0  0  0  0  0  0  0  0  0
  124.4020  119.0116   82.6501 H   0  0  0  0  0  0  0  0  0  0  0  0
  126.1299  119.5024   82.6501 H   0  0  0  0  0  0  0  0  0  0  0  0
  123.7319  120.6905   90.1659 H   0  0  0  0  0  0  0  0  0  0  0  0
  125.3327  122.4670   90.8498 H   0  0  0  0  0  0  0  0  0  0  0  0
  1  2  1  0
  2  3  1  0
  3  4  1  0
  4  5  1  0
  5  6  1  0
  6  7  2  0
  7  8  1  0
  8  9  2  0
  9 10  1  0
 10 11  1  0
 11 12  1  0
 12 13  1  0
 13 14  1  0
 14 15  2  0
 14 16  1  0
 16 17  1  0
  9 18  1  0
 18 19  2  0
 19  6  1  0
  1 20  1  0
  1 21  1  0
  1 22  1  0
  2 23  1  0
  2 24  1  0
  3 25  1  0
  3 26  1  0
  4 27  1  0
  4 28  1  0
  7 29  1  0
  8 30  1  0
 11 31  1  0
 11 32  1  0
 12 33  1  0
 12 34  1  0
 13 35  1  0
 16 36  1  0
 16 37  1  0
 17 38  1  0
 17 39  1  0
 17 40  1  0
 18 41  1  0
 19 42  1  0
M  END
>  <loss>  (22) 
1.6708005666732788

>  <score>  (22) 
-15.93825626373291

$$$$
KIFKUMPVMHUQKG-UHFFFAOYSA-N
     RDKit          3D

 42 42  0  0  0  0  0  0  0  0999 V2000
  119.9648  127.6602   89.5153 C   0  0  0  0  0  0  0  0  0  0  0  0
  120.1867  126.5009   90.4741 C   0  0  0  0  0  0  0  0  0  0  0  0
  119.2663  125.3223   90.1483 C   0  0  0  0  0  0  0  0  0  0  0  0
  119.5768  124.0927   91.0017 C   0  0  0  0  0  0  0  0  0  0  0  0
  119.3858  122.9212   90.2096 O   0  0  0  0  0  0  0  0  0  0  0  0
  120.4876  122.3977   89.5934 C   0  0  0  0  0  0  0  0  0  0  0  0
  120.3915  122.3063   88.2046 C   0  0  0  0  0  0  0  0  0  0  0  0
  121.4488  121.7889   87.4525 C   0  0  0  0  0  0  0  0  0  0  0  0
  122.6170  121.3534   88.0787 C   0  0  0  0  0  0  0  0  0  0  0  0
  123.5748  120.8704   87.2315 O   0  0  0  0  0  0  0  0  0  0  0  0
  124.9248  120.8651   87.7113 C   0  0  0  0  0  0  0  0  0  0  0  0
  125.8356  121.3310   86.5724 C   0  0  0  0  0  0  0  0  0  0  0  0
  125.1042  121.5399   85.3334 N   0  0  0  0  0  0  0  0  0  0  0  0
  125.3224  122.6618   84.5614 C   0  0  0  0  0  0  0  0  0  0  0  0
  126.2509  123.4384   84.7552 O   0  0  0  0  0  0  0  0  0  0  0  0
  124.2965  122.8245   83.4575 C   0  0  0  0  0  0  0  0  0  0  0  0
  124.7828  123.7377   82.3465 C   0  0  0  0  0  0  0  0  0  0  0  0
  122.7154  121.4428   89.4669 C   0  0  0  0  0  0  0  0  0  0  0  0
  121.6540  121.9630   90.2217 C   0  0  0  0  0  0  0  0  0  0  0  0
  119.7884  128.5819   90.0891 H   0  0  0  0  0  0  0  0  0  0  0  0
  120.8549  127.7874   88.8816 H   0  0  0  0  0  0  0  0  0  0  0  0
  119.0906  127.4497   88.8816 H   0  0  0  0  0  0  0  0  0  0  0  0
  121.2329  126.1695   90.3987 H   0  0  0  0  0  0  0  0  0  0  0  0
  119.9590  126.8464   91.4933 H   0  0  0  0  0  0  0  0  0  0  0  0
  118.2247  125.6256   90.3303 H   0  0  0  0  0  0  0  0  0  0  0  0
  119.4265  125.0506   89.0945 H   0  0  0  0  0  0  0  0  0  0  0  0
  120.6196  124.1378   91.3490 H   0  0  0  0  0  0  0  0  0  0  0  0
  118.9081  124.0658   91.8746 H   0  0  0  0  0  0  0  0  0  0  0  0
  119.4757  122.6444   87.6977 H   0  0  0  0  0  0  0  0  0  0  0  0
  121.3596  121.7242   86.3580 H   0  0  0  0  0  0  0  0  0  0  0  0
  125.0189  121.5491   88.5677 H   0  0  0  0  0  0  0  0  0  0  0  0
  125.2094  119.8540   88.0379 H   0  0  0  0  0  0  0  0  0  0  0  0
  126.3132  122.2775   86.8656 H   0  0  0  0  0  0  0  0  0  0  0  0
  126.5826  120.5434   86.3944 H   0  0  0  0  0  0  0  0  0  0  0  0
  124.4132  120.8400   85.0277 H   0  0  0  0  0  0  0  0  0  0  0  0
  124.0766  121.8348   83.0306 H   0  0  0  0  0  0  0  0  0  0  0  0
  123.3983  123.2813   83.8986 H   0  0  0  0  0  0  0  0  0  0  0  0
  125.2570  124.6281   82.7850 H   0  0  0  0  0  0  0  0  0  0  0  0
  125.5146  123.2012   81.7248 H   0  0  0  0  0  0  0  0  0  0  0  0
  123.9291  124.0455   81.7248 H   0  0  0  0  0  0  0  0  0  0  0  0
  123.6311  121.1031   89.9730 H   0  0  0  0  0  0  0  0  0  0  0  0
  121.7423  122.0286   91.3162 H   0  0  0  0  0  0  0  0  0  0  0  0
  1  2  1  0
  2  3  1  0
  3  4  1  0
  4  5  1  0
  5  6  1  0
  6  7  2  0
  7  8  1  0
  8  9  2  0
  9 10  1  0
 10 11  1  0
 11 12  1  0
 12 13  1  0
 13 14  1  0
 14 15  2  0
 14 16  1  0
 16 17  1  0
  9 18  1  0
 18 19  2  0
 19  6  1  0
  1 20  1  0
  1 21  1  0
  1 22  1  0
  2 23  1  0
  2 24  1  0
  3 25  1  0
  3 26  1  0
  4 27  1  0
  4 28  1  0
  7 29  1  0
  8 30  1  0
 11 31  1  0
 11 32  1  0
 12 33  1  0
 12 34  1  0
 13 35  1  0
 16 36  1  0
 16 37  1  0
 17 38  1  0
 17 39  1  0
 17 40  1  0
 18 41  1  0
 19 42  1  0
M  END
>  <loss>  (23) 
0.9294645190238953

>  <score>  (23) 
-22.703874588012695

$$$$
KIFKUMPVMHUQKG-UHFFFAOYSA-N
     RDKit          3D

 42 42  0  0  0  0  0  0  0  0999 V2000
  120.0226  127.3763   89.5802 C   0  0  0  0  0  0  0  0  0  0  0  0
  120.3332  126.3606   90.6684 C   0  0  0  0  0  0  0  0  0  0  0  0
  119.5559  125.0593   90.4567 C   0  0  0  0  0  0  0  0  0  0  0  0
  119.9678  123.9714   91.4483 C   0  0  0  0  0  0  0  0  0  0  0  0
  119.8151  122.6971   90.8248 O   0  0  0  0  0  0  0  0  0  0  0  0
  120.8987  122.1919   90.1629 C   0  0  0  0  0  0  0  0  0  0  0  0
  120.7679  122.1510   88.7746 C   0  0  0  0  0  0  0  0  0  0  0  0
  121.8037  121.6571   87.9782 C   0  0  0  0  0  0  0  0  0  0  0  0
  122.9851  121.1949   88.5590 C   0  0  0  0  0  0  0  0  0  0  0  0
  123.9194  120.7391   87.6714 O   0  0  0  0  0  0  0  0  0  0  0  0
  125.2958  120.9181   88.0266 C   0  0  0  0  0  0  0  0  0  0  0  0
  126.1172  120.9662   86.7356 C   0  0  0  0  0  0  0  0  0  0  0  0
  125.3042  121.3040   85.5785 N   0  0  0  0  0  0  0  0  0  0  0  0
  125.3916  122.5477   84.9888 C   0  0  0  0  0  0  0  0  0  0  0  0
  126.0411  123.4714   85.4659 O   0  0  0  0  0  0  0  0  0  0  0  0
  124.6032  122.6430   83.6977 C   0  0  0  0  0  0  0  0  0  0  0  0
  124.9308  123.8999   82.9119 C   0  0  0  0  0  0  0  0  0  0  0  0
  123.1183  121.2338   89.9467 C   0  0  0  0  0  0  0  0  0  0  0  0
  122.0784  121.7305   90.7459 C   0  0  0  0  0  0  0  0  0  0  0  0
  119.7306  128.3309   90.0421 H   0  0  0  0  0  0  0  0  0  0  0  0
  120.9151  127.5290   88.9556 H   0  0  0  0  0  0  0  0  0  0  0  0
  119.1973  127.0036   88.9556 H   0  0  0  0  0  0  0  0  0  0  0  0
  121.4108  126.1400   90.6549 H   0  0  0  0  0  0  0  0  0  0  0  0
  120.0344  126.7886   91.6367 H   0  0  0  0  0  0  0  0  0  0  0  0
  118.4823  125.2639   90.5814 H   0  0  0  0  0  0  0  0  0  0  0  0
  119.7794  124.6941   89.4434 H   0  0  0  0  0  0  0  0  0  0  0  0
  121.0184  124.1163   91.7403 H   0  0  0  0  0  0  0  0  0  0  0  0
  119.3345  124.0258   92.3461 H   0  0  0  0  0  0  0  0  0  0  0  0
  119.8413  122.5106   88.3032 H   0  0  0  0  0  0  0  0  0  0  0  0
  121.6871  121.6323   86.8847 H   0  0  0  0  0  0  0  0  0  0  0  0
  125.4183  121.8598   88.5818 H   0  0  0  0  0  0  0  0  0  0  0  0
  125.6359  120.0889   88.6643 H   0  0  0  0  0  0  0  0  0  0  0  0
  126.9071  121.7236   86.8465 H   0  0  0  0  0  0  0  0  0  0  0  0
  126.5420  119.9654   86.5687 H   0  0  0  0  0  0  0  0  0  0  0  0
  124.6537  120.6043   85.1935 H   0  0  0  0  0  0  0  0  0  0  0  0
  124.8367  121.7664   83.0755 H   0  0  0  0  0  0  0  0  0  0  0  0
  123.5351  122.6788   83.9583 H   0  0  0  0  0  0  0  0  0  0  0  0
  125.1452  124.7229   83.6095 H   0  0  0  0  0  0  0  0  0  0  0  0
  125.8113  123.7173   82.2784 H   0  0  0  0  0  0  0  0  0  0  0  0
  124.0731  124.1702   82.2784 H   0  0  0  0  0  0  0  0  0  0  0  0
  124.0447  120.8726   90.4172 H   0  0  0  0  0  0  0  0  0  0  0  0
  122.1940  121.7563   91.8395 H   0  0  0  0  0  0  0  0  0  0  0  0
  1  2  1  0
  2  3  1  0
  3  4  1  0
  4  5  1  0
  5  6  1  0
  6  7  2  0
  7  8  1  0
  8  9  2  0
  9 10  1  0
 10 11  1  0
 11 12  1  0
 12 13  1  0
 13 14  1  0
 14 15  2  0
 14 16  1  0
 16 17  1  0
  9 18  1  0
 18 19  2  0
 19  6  1  0
  1 20  1  0
  1 21  1  0
  1 22  1  0
  2 23  1  0
  2 24  1  0
  3 25  1  0
  3 26  1  0
  4 27  1  0
  4 28  1  0
  7 29  1  0
  8 30  1  0
 11 31  1  0
 11 32  1  0
 12 33  1  0
 12 34  1  0
 13 35  1  0
 16 36  1  0
 16 37  1  0
 17 38  1  0
 17 39  1  0
 17 40  1  0
 18 41  1  0
 19 42  1  0
M  END
>  <loss>  (24) 
0.9733393788337708

>  <score>  (24) 
-24.791488647460938

$$$$
KIFKUMPVMHUQKG-UHFFFAOYSA-N
     RDKit          3D

 42 42  0  0  0  0  0  0  0  0999 V2000
  119.8351  126.7172   91.0082 C   0  0  0  0  0  0  0  0  0  0  0  0
  121.1614  126.5021   91.7203 C   0  0  0  0  0  0  0  0  0  0  0  0
  121.6231  125.0459   91.7196 C   0  0  0  0  0  0  0  0  0  0  0  0
  120.5133  124.0508   92.0537 C   0  0  0  0  0  0  0  0  0  0  0  0
  121.0266  122.7368   91.8285 O   0  0  0  0  0  0  0  0  0  0  0  0
  121.2124  122.3555   90.5293 C   0  0  0  0  0  0  0  0  0  0  0  0
  120.3194  122.5525   89.4787 C   0  0  0  0  0  0  0  0  0  0  0  0
  120.6445  122.1070   88.1923 C   0  0  0  0  0  0  0  0  0  0  0  0
  121.8580  121.4622   87.9382 C   0  0  0  0  0  0  0  0  0  0  0  0
  122.0392  121.0901   86.6354 O   0  0  0  0  0  0  0  0  0  0  0  0
  123.3213  121.3031   86.0424 C   0  0  0  0  0  0  0  0  0  0  0  0
  123.2937  122.5011   85.0890 C   0  0  0  0  0  0  0  0  0  0  0  0
  124.6135  122.9025   84.6405 N   0  0  0  0  0  0  0  0  0  0  0  0
  125.7543  122.3822   85.2130 C   0  0  0  0  0  0  0  0  0  0  0  0
  126.4253  122.9918   86.0376 O   0  0  0  0  0  0  0  0  0  0  0  0
  126.0741  120.9831   84.7259 C   0  0  0  0  0  0  0  0  0  0  0  0
  127.3575  120.4407   85.3297 C   0  0  0  0  0  0  0  0  0  0  0  0
  122.7508  121.2665   88.9894 C   0  0  0  0  0  0  0  0  0  0  0  0
  122.4260  121.7132   90.2757 C   0  0  0  0  0  0  0  0  0  0  0  0
  119.0359  126.8468   91.7529 H   0  0  0  0  0  0  0  0  0  0  0  0
  119.8987  127.6168   90.3784 H   0  0  0  0  0  0  0  0  0  0  0  0
  119.6112  125.8436   90.3784 H   0  0  0  0  0  0  0  0  0  0  0  0
  121.9285  127.1110   91.2194 H   0  0  0  0  0  0  0  0  0  0  0  0
  121.0167  126.7956   92.7705 H   0  0  0  0  0  0  0  0  0  0  0  0
  122.0155  124.8062   90.7203 H   0  0  0  0  0  0  0  0  0  0  0  0
  122.3881  124.9503   92.5043 H   0  0  0  0  0  0  0  0  0  0  0  0
  120.2153  124.1613   93.1068 H   0  0  0  0  0  0  0  0  0  0  0  0
  119.6299  124.2328   91.4239 H   0  0  0  0  0  0  0  0  0  0  0  0
  119.3594  123.0579   89.6598 H   0  0  0  0  0  0  0  0  0  0  0  0
  119.9335  122.2669   87.3683 H   0  0  0  0  0  0  0  0  0  0  0  0
  124.0579  121.4927   86.8370 H   0  0  0  0  0  0  0  0  0  0  0  0
  123.5950  120.4053   85.4687 H   0  0  0  0  0  0  0  0  0  0  0  0
  122.6912  122.2338   84.2084 H   0  0  0  0  0  0  0  0  0  0  0  0
  122.8630  123.3495   85.6411 H   0  0  0  0  0  0  0  0  0  0  0  0
  124.6999  123.5905   83.8788 H   0  0  0  0  0  0  0  0  0  0  0  0
  125.2444  120.3150   85.0002 H   0  0  0  0  0  0  0  0  0  0  0  0
  126.2094  121.0297   83.6353 H   0  0  0  0  0  0  0  0  0  0  0  0
  127.2875  120.4703   86.4271 H   0  0  0  0  0  0  0  0  0  0  0  0
  127.5076  119.4022   84.9997 H   0  0  0  0  0  0  0  0  0  0  0  0
  128.2069  121.0567   84.9997 H   0  0  0  0  0  0  0  0  0  0  0  0
  123.7110  120.7611   88.8087 H   0  0  0  0  0  0  0  0  0  0  0  0
  123.1379  121.5557   91.0994 H   0  0  0  0  0  0  0  0  0  0  0  0
  1  2  1  0
  2  3  1  0
  3  4  1  0
  4  5  1  0
  5  6  1  0
  6  7  2  0
  7  8  1  0
  8  9  2  0
  9 10  1  0
 10 11  1  0
 11 12  1  0
 12 13  1  0
 13 14  1  0
 14 15  2  0
 14 16  1  0
 16 17  1  0
  9 18  1  0
 18 19  2  0
 19  6  1  0
  1 20  1  0
  1 21  1  0
  1 22  1  0
  2 23  1  0
  2 24  1  0
  3 25  1  0
  3 26  1  0
  4 27  1  0
  4 28  1  0
  7 29  1  0
  8 30  1  0
 11 31  1  0
 11 32  1  0
 12 33  1  0
 12 34  1  0
 13 35  1  0
 16 36  1  0
 16 37  1  0
 17 38  1  0
 17 39  1  0
 17 40  1  0
 18 41  1  0
 19 42  1  0
M  END
>  <loss>  (25) 
1.1047974824905396

>  <score>  (25) 
-34.782772064208984

$$$$
