KRWFGEYBAWMPBG-UHFFFAOYSA-N
     RDKit          3D

 31 31  0  0  0  0  0  0  0  0999 V2000
  126.6834  121.8742   83.9411 C   0  0  0  0  0  0  0  0  0  0  0  0
  126.4522  122.1902   85.4082 C   0  0  0  0  0  0  0  0  0  0  0  0
  125.4080  121.3290   85.8811 O   0  0  0  0  0  0  0  0  0  0  0  0
  125.2994  121.4074   87.2485 C   0  0  0  0  0  0  0  0  0  0  0  0
  126.4915  121.4508   87.9747 C   0  0  0  0  0  0  0  0  0  0  0  0
  126.4537  121.5819   89.3618 C   0  0  0  0  0  0  0  0  0  0  0  0
  125.2273  121.6838   90.0173 C   0  0  0  0  0  0  0  0  0  0  0  0
  124.0375  121.6657   89.2841 C   0  0  0  0  0  0  0  0  0  0  0  0
  124.0560  121.5474   87.8906 C   0  0  0  0  0  0  0  0  0  0  0  0
  122.8270  121.5293   87.2067 N   0  0  0  0  0  0  0  0  0  0  0  0
  122.4873  122.5311   86.4546 C   0  0  0  0  0  0  0  0  0  0  0  0
  123.2301  123.6439   86.1997 N   0  0  0  0  0  0  0  0  0  0  0  0
  121.2918  122.4926   85.7906 N   0  0  0  0  0  0  0  0  0  0  0  0
  120.2771  123.1767   86.1892 C   0  0  0  0  0  0  0  0  0  0  0  0
  120.1552  124.0205   87.2410 N   0  0  0  0  0  0  0  0  0  0  0  0
  119.1070  123.1272   85.5092 N   0  0  0  0  0  0  0  0  0  0  0  0
  127.3311  120.9893   83.8543 H   0  0  0  0  0  0  0  0  0  0  0  0
  125.7186  121.6717   83.4531 H   0  0  0  0  0  0  0  0  0  0  0  0
  127.1681  122.7326   83.4531 H   0  0  0  0  0  0  0  0  0  0  0  0
  127.3743  122.0095   85.9800 H   0  0  0  0  0  0  0  0  0  0  0  0
  126.1677  123.2452   85.5345 H   0  0  0  0  0  0  0  0  0  0  0  0
  127.4577  121.3817   87.4534 H   0  0  0  0  0  0  0  0  0  0  0  0
  127.3901  121.6050   89.9386 H   0  0  0  0  0  0  0  0  0  0  0  0
  125.1961  121.7785   91.1128 H   0  0  0  0  0  0  0  0  0  0  0  0
  123.0744  121.7456   89.8096 H   0  0  0  0  0  0  0  0  0  0  0  0
  122.8588  124.3809   85.5834 H   0  0  0  0  0  0  0  0  0  0  0  0
  124.1632  123.7483   86.6232 H   0  0  0  0  0  0  0  0  0  0  0  0
  119.2581  124.4939   87.4202 H   0  0  0  0  0  0  0  0  0  0  0  0
  120.9595  124.1891   87.8620 H   0  0  0  0  0  0  0  0  0  0  0  0
  118.2990  123.6773   85.8340 H   0  0  0  0  0  0  0  0  0  0  0  0
  119.0250  122.5395   84.6674 H   0  0  0  0  0  0  0  0  0  0  0  0
  1  2  1  0
  2  3  1  0
  3  4  1  0
  4  5  2  0
  5  6  1  0
  6  7  2  0
  7  8  1  0
  8  9  2  0
  9 10  1  0
 10 11  2  3
 11 12  1  0
 11 13  1  0
 13 14  2  3
 14 15  1  0
 14 16  1  0
  9  4  1  0
  1 17  1  0
  1 18  1  0
  1 19  1  0
  2 20  1  0
  2 21  1  0
  5 22  1  0
  6 23  1  0
  7 24  1  0
  8 25  1  0
 12 26  1  0
 12 27  1  0
 15 28  1  0
 15 29  1  0
 16 30  1  0
 16 31  1  0
M  END
>  <loss>  (1) 
0.38418111205101013

>  <score>  (1) 
7.539794921875

$$$$
KRWFGEYBAWMPBG-UHFFFAOYSA-N
     RDKit          3D

 31 31  0  0  0  0  0  0  0  0999 V2000
  126.6928  121.8622   83.9011 C   0  0  0  0  0  0  0  0  0  0  0  0
  126.6249  122.0002   85.4117 C   0  0  0  0  0  0  0  0  0  0  0  0
  125.3903  121.4168   85.8485 O   0  0  0  0  0  0  0  0  0  0  0  0
  125.2895  121.4679   87.2178 C   0  0  0  0  0  0  0  0  0  0  0  0
  126.4846  121.5509   87.9357 C   0  0  0  0  0  0  0  0  0  0  0  0
  126.4525  121.6575   89.3251 C   0  0  0  0  0  0  0  0  0  0  0  0
  125.2282  121.6956   89.9913 C   0  0  0  0  0  0  0  0  0  0  0  0
  124.0343  121.6381   89.2668 C   0  0  0  0  0  0  0  0  0  0  0  0
  124.0466  121.5436   87.8714 C   0  0  0  0  0  0  0  0  0  0  0  0
  122.8139  121.4837   87.1965 N   0  0  0  0  0  0  0  0  0  0  0  0
  122.3532  122.5351   86.5906 C   0  0  0  0  0  0  0  0  0  0  0  0
  122.9659  123.7472   86.4883 N   0  0  0  0  0  0  0  0  0  0  0  0
  121.1565  122.4559   85.9325 N   0  0  0  0  0  0  0  0  0  0  0  0
  120.1617  123.2083   86.2500 C   0  0  0  0  0  0  0  0  0  0  0  0
  120.0643  124.1674   87.2008 N   0  0  0  0  0  0  0  0  0  0  0  0
  118.9900  123.1159   85.5772 N   0  0  0  0  0  0  0  0  0  0  0  0
  127.1649  120.9031   83.6414 H   0  0  0  0  0  0  0  0  0  0  0  0
  125.6756  121.8950   83.4838 H   0  0  0  0  0  0  0  0  0  0  0  0
  127.2872  122.6883   83.4838 H   0  0  0  0  0  0  0  0  0  0  0  0
  127.4724  121.4733   85.8744 H   0  0  0  0  0  0  0  0  0  0  0  0
  126.6747  123.0595   85.7041 H   0  0  0  0  0  0  0  0  0  0  0  0
  127.4485  121.5321   87.4061 H   0  0  0  0  0  0  0  0  0  0  0  0
  127.3917  121.7115   89.8952 H   0  0  0  0  0  0  0  0  0  0  0  0
  125.2019  121.7709   91.0884 H   0  0  0  0  0  0  0  0  0  0  0  0
  123.0730  121.6677   89.8007 H   0  0  0  0  0  0  0  0  0  0  0  0
  122.5051  124.5159   85.9807 H   0  0  0  0  0  0  0  0  0  0  0  0
  123.8900  123.8950   86.9183 H   0  0  0  0  0  0  0  0  0  0  0  0
  119.1810  124.6826   87.3240 H   0  0  0  0  0  0  0  0  0  0  0  0
  120.8736  124.3818   87.8008 H   0  0  0  0  0  0  0  0  0  0  0  0
  118.1980  123.7211   85.8367 H   0  0  0  0  0  0  0  0  0  0  0  0
  118.8909  122.4404   84.8060 H   0  0  0  0  0  0  0  0  0  0  0  0
  1  2  1  0
  2  3  1  0
  3  4  1  0
  4  5  2  0
  5  6  1  0
  6  7  2  0
  7  8  1  0
  8  9  2  0
  9 10  1  0
 10 11  2  3
 11 12  1  0
 11 13  1  0
 13 14  2  3
 14 15  1  0
 14 16  1  0
  9  4  1  0
  1 17  1  0
  1 18  1  0
  1 19  1  0
  2 20  1  0
  2 21  1  0
  5 22  1  0
  6 23  1  0
  7 24  1  0
  8 25  1  0
 12 26  1  0
 12 27  1  0
 15 28  1  0
 15 29  1  0
 16 30  1  0
 16 31  1  0
M  END
>  <loss>  (2) 
0.40613964200019836

>  <score>  (2) 
7.579900741577148

$$$$
KRWFGEYBAWMPBG-UHFFFAOYSA-N
     RDKit          3D

 31 31  0  0  0  0  0  0  0  0999 V2000
  126.7541  121.8337   83.9403 C   0  0  0  0  0  0  0  0  0  0  0  0
  126.3516  122.2617   85.3405 C   0  0  0  0  0  0  0  0  0  0  0  0
  125.4106  121.3009   85.8373 O   0  0  0  0  0  0  0  0  0  0  0  0
  125.2994  121.3953   87.2035 C   0  0  0  0  0  0  0  0  0  0  0  0
  126.4902  121.4384   87.9320 C   0  0  0  0  0  0  0  0  0  0  0  0
  126.4502  121.5853   89.3174 C   0  0  0  0  0  0  0  0  0  0  0  0
  125.2231  121.7033   89.9689 C   0  0  0  0  0  0  0  0  0  0  0  0
  124.0348  121.6855   89.2332 C   0  0  0  0  0  0  0  0  0  0  0  0
  124.0557  121.5514   87.8411 C   0  0  0  0  0  0  0  0  0  0  0  0
  122.8281  121.5345   87.1546 N   0  0  0  0  0  0  0  0  0  0  0  0
  122.4712  122.5551   86.4364 C   0  0  0  0  0  0  0  0  0  0  0  0
  123.1940  123.6891   86.2211 N   0  0  0  0  0  0  0  0  0  0  0  0
  121.2776  122.5175   85.7692 N   0  0  0  0  0  0  0  0  0  0  0  0
  120.2496  123.1679   86.1897 C   0  0  0  0  0  0  0  0  0  0  0  0
  120.1104  123.9717   87.2704 N   0  0  0  0  0  0  0  0  0  0  0  0
  119.0815  123.1206   85.5062 N   0  0  0  0  0  0  0  0  0  0  0  0
  127.5065  121.0336   84.0036 H   0  0  0  0  0  0  0  0  0  0  0  0
  125.8695  121.4633   83.4016 H   0  0  0  0  0  0  0  0  0  0  0  0
  127.1781  122.6939   83.4016 H   0  0  0  0  0  0  0  0  0  0  0  0
  127.2371  122.2903   85.9925 H   0  0  0  0  0  0  0  0  0  0  0  0
  125.9030  123.2659   85.3220 H   0  0  0  0  0  0  0  0  0  0  0  0
  127.4570  121.3566   87.4137 H   0  0  0  0  0  0  0  0  0  0  0  0
  127.3855  121.6082   89.8961 H   0  0  0  0  0  0  0  0  0  0  0  0
  125.1901  121.8105   91.0632 H   0  0  0  0  0  0  0  0  0  0  0  0
  123.0712  121.7781   89.7555 H   0  0  0  0  0  0  0  0  0  0  0  0
  122.8102  124.4400   85.6296 H   0  0  0  0  0  0  0  0  0  0  0  0
  124.1245  123.7960   86.6497 H   0  0  0  0  0  0  0  0  0  0  0  0
  119.2044  124.4214   87.4645 H   0  0  0  0  0  0  0  0  0  0  0  0
  120.9106  124.1333   87.8985 H   0  0  0  0  0  0  0  0  0  0  0  0
  118.2629  123.6436   85.8485 H   0  0  0  0  0  0  0  0  0  0  0  0
  119.0117  122.5615   84.6439 H   0  0  0  0  0  0  0  0  0  0  0  0
  1  2  1  0
  2  3  1  0
  3  4  1  0
  4  5  2  0
  5  6  1  0
  6  7  2  0
  7  8  1  0
  8  9  2  0
  9 10  1  0
 10 11  2  3
 11 12  1  0
 11 13  1  0
 13 14  2  3
 14 15  1  0
 14 16  1  0
  9  4  1  0
  1 17  1  0
  1 18  1  0
  1 19  1  0
  2 20  1  0
  2 21  1  0
  5 22  1  0
  6 23  1  0
  7 24  1  0
  8 25  1  0
 12 26  1  0
 12 27  1  0
 15 28  1  0
 15 29  1  0
 16 30  1  0
 16 31  1  0
M  END
>  <loss>  (3) 
0.3879549503326416

>  <score>  (3) 
7.445087432861328

$$$$
KRWFGEYBAWMPBG-UHFFFAOYSA-N
     RDKit          3D

 31 31  0  0  0  0  0  0  0  0999 V2000
  126.8205  122.0785   83.9056 C   0  0  0  0  0  0  0  0  0  0  0  0
  126.6917  122.0642   85.4185 C   0  0  0  0  0  0  0  0  0  0  0  0
  125.4882  121.3579   85.7476 O   0  0  0  0  0  0  0  0  0  0  0  0
  125.2427  121.4247   87.0979 C   0  0  0  0  0  0  0  0  0  0  0  0
  126.3559  121.4502   87.9409 C   0  0  0  0  0  0  0  0  0  0  0  0
  126.1794  121.5688   89.3184 C   0  0  0  0  0  0  0  0  0  0  0  0
  124.8940  121.6761   89.8480 C   0  0  0  0  0  0  0  0  0  0  0  0
  123.7841  121.6760   88.9984 C   0  0  0  0  0  0  0  0  0  0  0  0
  123.9422  121.5704   87.6128 C   0  0  0  0  0  0  0  0  0  0  0  0
  122.7883  121.5702   86.8083 N   0  0  0  0  0  0  0  0  0  0  0  0
  122.2873  122.6924   86.3906 C   0  0  0  0  0  0  0  0  0  0  0  0
  122.7886  123.9389   86.6145 N   0  0  0  0  0  0  0  0  0  0  0  0
  121.1694  122.6724   85.6024 N   0  0  0  0  0  0  0  0  0  0  0  0
  120.0508  123.1641   86.0067 C   0  0  0  0  0  0  0  0  0  0  0  0
  119.7377  123.7673   87.1778 N   0  0  0  0  0  0  0  0  0  0  0  0
  118.9607  123.1392   85.2036 N   0  0  0  0  0  0  0  0  0  0  0  0
  127.8786  122.1964   83.6288 H   0  0  0  0  0  0  0  0  0  0  0  0
  126.4376  121.1322   83.4960 H   0  0  0  0  0  0  0  0  0  0  0  0
  126.2387  122.9174   83.4960 H   0  0  0  0  0  0  0  0  0  0  0  0
  127.5588  121.5540   85.8634 H   0  0  0  0  0  0  0  0  0  0  0  0
  126.6551  123.0909   85.8115 H   0  0  0  0  0  0  0  0  0  0  0  0
  127.3691  121.3768   87.5190 H   0  0  0  0  0  0  0  0  0  0  0  0
  127.0530  121.5778   89.9868 H   0  0  0  0  0  0  0  0  0  0  0  0
  124.7533  121.7610   90.9356 H   0  0  0  0  0  0  0  0  0  0  0  0
  122.7737  121.7600   89.4249 H   0  0  0  0  0  0  0  0  0  0  0  0
  122.3054  124.7645   86.2327 H   0  0  0  0  0  0  0  0  0  0  0  0
  123.6509  124.0559   87.1656 H   0  0  0  0  0  0  0  0  0  0  0  0
  118.7796  124.1081   87.3416 H   0  0  0  0  0  0  0  0  0  0  0  0
  120.4577  123.8854   87.9049 H   0  0  0  0  0  0  0  0  0  0  0  0
  118.0687  123.5345   85.5337 H   0  0  0  0  0  0  0  0  0  0  0  0
  119.0235  122.7248   84.2627 H   0  0  0  0  0  0  0  0  0  0  0  0
  1  2  1  0
  2  3  1  0
  3  4  1  0
  4  5  2  0
  5  6  1  0
  6  7  2  0
  7  8  1  0
  8  9  2  0
  9 10  1  0
 10 11  2  3
 11 12  1  0
 11 13  1  0
 13 14  2  3
 14 15  1  0
 14 16  1  0
  9  4  1  0
  1 17  1  0
  1 18  1  0
  1 19  1  0
  2 20  1  0
  2 21  1  0
  5 22  1  0
  6 23  1  0
  7 24  1  0
  8 25  1  0
 12 26  1  0
 12 27  1  0
 15 28  1  0
 15 29  1  0
 16 30  1  0
 16 31  1  0
M  END
>  <loss>  (4) 
0.39625948667526245

>  <score>  (4) 
7.356398582458496

$$$$
KRWFGEYBAWMPBG-UHFFFAOYSA-N
     RDKit          3D

 31 31  0  0  0  0  0  0  0  0999 V2000
  126.7126  122.2657   83.8949 C   0  0  0  0  0  0  0  0  0  0  0  0
  126.7088  121.4597   85.1814 C   0  0  0  0  0  0  0  0  0  0  0  0
  125.4041  121.5483   85.7472 O   0  0  0  0  0  0  0  0  0  0  0  0
  125.3059  121.5721   87.1164 C   0  0  0  0  0  0  0  0  0  0  0  0
  126.3946  121.5921   87.9941 C   0  0  0  0  0  0  0  0  0  0  0  0
  126.1847  121.6034   89.3764 C   0  0  0  0  0  0  0  0  0  0  0  0
  124.8902  121.5959   89.8903 C   0  0  0  0  0  0  0  0  0  0  0  0
  123.8002  121.5726   89.0216 C   0  0  0  0  0  0  0  0  0  0  0  0
  123.9946  121.5476   87.6368 C   0  0  0  0  0  0  0  0  0  0  0  0
  122.8687  121.5537   86.7942 N   0  0  0  0  0  0  0  0  0  0  0  0
  122.2926  122.6811   86.5139 C   0  0  0  0  0  0  0  0  0  0  0  0
  122.6669  123.9193   86.9394 N   0  0  0  0  0  0  0  0  0  0  0  0
  121.1897  122.6515   85.7093 N   0  0  0  0  0  0  0  0  0  0  0  0
  120.0907  123.1840   86.1264 C   0  0  0  0  0  0  0  0  0  0  0  0
  119.0008  123.1758   85.3235 N   0  0  0  0  0  0  0  0  0  0  0  0
  119.8521  123.8378   87.2894 N   0  0  0  0  0  0  0  0  0  0  0  0
  126.7176  123.3392   84.1348 H   0  0  0  0  0  0  0  0  0  0  0  0
  127.6096  122.0167   83.3089 H   0  0  0  0  0  0  0  0  0  0  0  0
  125.8133  122.0251   83.3089 H   0  0  0  0  0  0  0  0  0  0  0  0
  126.9524  120.4089   84.9654 H   0  0  0  0  0  0  0  0  0  0  0  0
  127.4594  121.8525   85.8831 H   0  0  0  0  0  0  0  0  0  0  0  0
  127.4198  121.5990   87.5955 H   0  0  0  0  0  0  0  0  0  0  0  0
  127.0456  121.6183   90.0609 H   0  0  0  0  0  0  0  0  0  0  0  0
  124.7284  121.6082   90.9782 H   0  0  0  0  0  0  0  0  0  0  0  0
  122.7784  121.5740   89.4289 H   0  0  0  0  0  0  0  0  0  0  0  0
  122.1283  124.7480   86.6496 H   0  0  0  0  0  0  0  0  0  0  0  0
  123.4885  124.0271   87.5511 H   0  0  0  0  0  0  0  0  0  0  0  0
  118.1192  123.5984   85.6476 H   0  0  0  0  0  0  0  0  0  0  0  0
  119.0532  122.7470   84.3884 H   0  0  0  0  0  0  0  0  0  0  0  0
  118.9132  124.2127   87.4862 H   0  0  0  0  0  0  0  0  0  0  0  0
  120.6097  123.9597   87.9765 H   0  0  0  0  0  0  0  0  0  0  0  0
  1  2  1  0
  2  3  1  0
  3  4  1  0
  4  5  2  0
  5  6  1  0
  6  7  2  0
  7  8  1  0
  8  9  2  0
  9 10  1  0
 10 11  2  3
 11 12  1  0
 11 13  1  0
 13 14  2  3
 14 15  1  0
 14 16  1  0
  9  4  1  0
  1 17  1  0
  1 18  1  0
  1 19  1  0
  2 20  1  0
  2 21  1  0
  5 22  1  0
  6 23  1  0
  7 24  1  0
  8 25  1  0
 12 26  1  0
 12 27  1  0
 15 28  1  0
 15 29  1  0
 16 30  1  0
 16 31  1  0
M  END
>  <loss>  (5) 
0.4159258008003235

>  <score>  (5) 
7.417076587677002

$$$$
KRWFGEYBAWMPBG-UHFFFAOYSA-N
     RDKit          3D

 31 31  0  0  0  0  0  0  0  0999 V2000
  126.8129  121.9402   83.7955 C   0  0  0  0  0  0  0  0  0  0  0  0
  126.4687  122.4002   85.2007 C   0  0  0  0  0  0  0  0  0  0  0  0
  125.6412  121.4039   85.7948 O   0  0  0  0  0  0  0  0  0  0  0  0
  125.4555  121.4603   87.1539 C   0  0  0  0  0  0  0  0  0  0  0  0
  126.4844  121.4420   88.1011 C   0  0  0  0  0  0  0  0  0  0  0  0
  126.1859  121.4918   89.4661 C   0  0  0  0  0  0  0  0  0  0  0  0
  124.8621  121.5611   89.8935 C   0  0  0  0  0  0  0  0  0  0  0  0
  123.8313  121.5764   88.9554 C   0  0  0  0  0  0  0  0  0  0  0  0
  124.1137  121.5136   87.5870 C   0  0  0  0  0  0  0  0  0  0  0  0
  123.0469  121.5605   86.6719 N   0  0  0  0  0  0  0  0  0  0  0  0
  122.3093  122.6254   86.6120 C   0  0  0  0  0  0  0  0  0  0  0  0
  122.4536  123.7631   87.3461 N   0  0  0  0  0  0  0  0  0  0  0  0
  121.2691  122.6321   85.7275 N   0  0  0  0  0  0  0  0  0  0  0  0
  120.1335  123.1237   86.0937 C   0  0  0  0  0  0  0  0  0  0  0  0
  119.1057  123.1520   85.2131 N   0  0  0  0  0  0  0  0  0  0  0  0
  119.7991  123.7007   87.2737 N   0  0  0  0  0  0  0  0  0  0  0  0
  127.4712  121.0605   83.8486 H   0  0  0  0  0  0  0  0  0  0  0  0
  125.8894  121.6752   83.2598 H   0  0  0  0  0  0  0  0  0  0  0  0
  127.3276  122.7515   83.2598 H   0  0  0  0  0  0  0  0  0  0  0  0
  127.3891  122.5225   85.7905 H   0  0  0  0  0  0  0  0  0  0  0  0
  125.9449  123.3670   85.1710 H   0  0  0  0  0  0  0  0  0  0  0  0
  127.5323  121.3882   87.7710 H   0  0  0  0  0  0  0  0  0  0  0  0
  127.0001  121.4763   90.2056 H   0  0  0  0  0  0  0  0  0  0  0  0
  124.6308  121.6036   90.9681 H   0  0  0  0  0  0  0  0  0  0  0  0
  122.7866  121.6384   89.2942 H   0  0  0  0  0  0  0  0  0  0  0  0
  121.8024  124.5495   87.2106 H   0  0  0  0  0  0  0  0  0  0  0  0
  123.2140  123.8372   88.0370 H   0  0  0  0  0  0  0  0  0  0  0  0
  118.1955  123.5424   85.4962 H   0  0  0  0  0  0  0  0  0  0  0  0
  119.2337  122.7830   84.2600 H   0  0  0  0  0  0  0  0  0  0  0  0
  118.8420  124.0508   87.4228 H   0  0  0  0  0  0  0  0  0  0  0  0
  120.5021  123.7890   88.0212 H   0  0  0  0  0  0  0  0  0  0  0  0
  1  2  1  0
  2  3  1  0
  3  4  1  0
  4  5  2  0
  5  6  1  0
  6  7  2  0
  7  8  1  0
  8  9  2  0
  9 10  1  0
 10 11  2  3
 11 12  1  0
 11 13  1  0
 13 14  2  3
 14 15  1  0
 14 16  1  0
  9  4  1  0
  1 17  1  0
  1 18  1  0
  1 19  1  0
  2 20  1  0
  2 21  1  0
  5 22  1  0
  6 23  1  0
  7 24  1  0
  8 25  1  0
 12 26  1  0
 12 27  1  0
 15 28  1  0
 15 29  1  0
 16 30  1  0
 16 31  1  0
M  END
>  <loss>  (6) 
0.4002649188041687

>  <score>  (6) 
7.303226470947266

$$$$
KRWFGEYBAWMPBG-UHFFFAOYSA-N
     RDKit          3D

 31 31  0  0  0  0  0  0  0  0999 V2000
  126.8299  122.0981   83.9263 C   0  0  0  0  0  0  0  0  0  0  0  0
  126.5080  122.3131   85.3946 C   0  0  0  0  0  0  0  0  0  0  0  0
  125.6572  121.2393   85.8169 O   0  0  0  0  0  0  0  0  0  0  0  0
  125.3744  121.3456   87.1573 C   0  0  0  0  0  0  0  0  0  0  0  0
  126.4637  121.3945   88.0300 C   0  0  0  0  0  0  0  0  0  0  0  0
  126.2492  121.5534   89.3980 C   0  0  0  0  0  0  0  0  0  0  0  0
  124.9497  121.6775   89.8881 C   0  0  0  0  0  0  0  0  0  0  0  0
  123.8639  121.6538   89.0083 C   0  0  0  0  0  0  0  0  0  0  0  0
  124.0603  121.5077   87.6313 C   0  0  0  0  0  0  0  0  0  0  0  0
  122.9293  121.4853   86.7953 N   0  0  0  0  0  0  0  0  0  0  0  0
  122.2747  122.5808   86.5584 C   0  0  0  0  0  0  0  0  0  0  0  0
  122.5851  123.8267   87.0126 N   0  0  0  0  0  0  0  0  0  0  0  0
  121.1819  122.5414   85.7364 N   0  0  0  0  0  0  0  0  0  0  0  0
  120.0921  123.1581   86.0340 C   0  0  0  0  0  0  0  0  0  0  0  0
  119.7912  123.9242   87.1091 N   0  0  0  0  0  0  0  0  0  0  0  0
  119.0270  123.1099   85.1989 N   0  0  0  0  0  0  0  0  0  0  0  0
  127.7415  121.4890   83.8361 H   0  0  0  0  0  0  0  0  0  0  0  0
  125.9918  121.5779   83.4395 H   0  0  0  0  0  0  0  0  0  0  0  0
  126.9897  123.0715   83.4395 H   0  0  0  0  0  0  0  0  0  0  0  0
  127.4358  122.3105   85.9856 H   0  0  0  0  0  0  0  0  0  0  0  0
  126.0072  123.2815   85.5410 H   0  0  0  0  0  0  0  0  0  0  0  0
  127.4881  121.3078   87.6387 H   0  0  0  0  0  0  0  0  0  0  0  0
  127.1039  121.5809   90.0899 H   0  0  0  0  0  0  0  0  0  0  0  0
  124.7789  121.7941   90.9685 H   0  0  0  0  0  0  0  0  0  0  0  0
  122.8422  121.7513   89.4039 H   0  0  0  0  0  0  0  0  0  0  0  0
  121.9911  124.6296   86.7606 H   0  0  0  0  0  0  0  0  0  0  0  0
  123.4138  123.9661   87.6082 H   0  0  0  0  0  0  0  0  0  0  0  0
  118.8571  124.3500   87.1928 H   0  0  0  0  0  0  0  0  0  0  0  0
  120.4965  124.0813   87.8431 H   0  0  0  0  0  0  0  0  0  0  0  0
  118.1580  123.6058   85.4434 H   0  0  0  0  0  0  0  0  0  0  0  0
  119.0860  122.5773   84.3193 H   0  0  0  0  0  0  0  0  0  0  0  0
  1  2  1  0
  2  3  1  0
  3  4  1  0
  4  5  2  0
  5  6  1  0
  6  7  2  0
  7  8  1  0
  8  9  2  0
  9 10  1  0
 10 11  2  3
 11 12  1  0
 11 13  1  0
 13 14  2  3
 14 15  1  0
 14 16  1  0
  9  4  1  0
  1 17  1  0
  1 18  1  0
  1 19  1  0
  2 20  1  0
  2 21  1  0
  5 22  1  0
  6 23  1  0
  7 24  1  0
  8 25  1  0
 12 26  1  0
 12 27  1  0
 15 28  1  0
 15 29  1  0
 16 30  1  0
 16 31  1  0
M  END
>  <loss>  (7) 
0.4165450930595398

>  <score>  (7) 
7.342349052429199

$$$$
KRWFGEYBAWMPBG-UHFFFAOYSA-N
     RDKit          3D

 31 31  0  0  0  0  0  0  0  0999 V2000
  126.7036  122.2517   83.9550 C   0  0  0  0  0  0  0  0  0  0  0  0
  126.6140  121.3547   85.1766 C   0  0  0  0  0  0  0  0  0  0  0  0
  125.3662  121.6112   85.8148 O   0  0  0  0  0  0  0  0  0  0  0  0
  125.3441  121.6164   87.1875 C   0  0  0  0  0  0  0  0  0  0  0  0
  126.4792  121.6619   88.0035 C   0  0  0  0  0  0  0  0  0  0  0  0
  126.3468  121.6508   89.3953 C   0  0  0  0  0  0  0  0  0  0  0  0
  125.0840  121.5952   89.9803 C   0  0  0  0  0  0  0  0  0  0  0  0
  123.9484  121.5463   89.1734 C   0  0  0  0  0  0  0  0  0  0  0  0
  124.0655  121.5432   87.7797 C   0  0  0  0  0  0  0  0  0  0  0  0
  122.8946  121.5221   87.0012 N   0  0  0  0  0  0  0  0  0  0  0  0
  122.4039  122.6397   86.5636 C   0  0  0  0  0  0  0  0  0  0  0  0
  122.9115  123.8882   86.7583 N   0  0  0  0  0  0  0  0  0  0  0  0
  121.2550  122.5874   85.8274 N   0  0  0  0  0  0  0  0  0  0  0  0
  120.1958  123.1774   86.2694 C   0  0  0  0  0  0  0  0  0  0  0  0
  119.0605  123.1463   85.5327 N   0  0  0  0  0  0  0  0  0  0  0  0
  120.0422  123.9140   87.3968 N   0  0  0  0  0  0  0  0  0  0  0  0
  126.8081  123.2987   84.2757 H   0  0  0  0  0  0  0  0  0  0  0  0
  127.5775  121.9639   83.3521 H   0  0  0  0  0  0  0  0  0  0  0  0
  125.7901  122.1424   83.3521 H   0  0  0  0  0  0  0  0  0  0  0  0
  126.6680  120.2995   84.8707 H   0  0  0  0  0  0  0  0  0  0  0  0
  127.4470  121.5592   85.8653 H   0  0  0  0  0  0  0  0  0  0  0  0
  127.4797  121.7067   87.5485 H   0  0  0  0  0  0  0  0  0  0  0  0
  127.2438  121.6860   90.0310 H   0  0  0  0  0  0  0  0  0  0  0  0
  124.9832  121.5900   91.0756 H   0  0  0  0  0  0  0  0  0  0  0  0
  122.9515  121.5097   89.6369 H   0  0  0  0  0  0  0  0  0  0  0  0
  122.4312  124.7074   86.3594 H   0  0  0  0  0  0  0  0  0  0  0  0
  123.7757  124.0133   87.3045 H   0  0  0  0  0  0  0  0  0  0  0  0
  118.2100  123.6143   85.8772 H   0  0  0  0  0  0  0  0  0  0  0  0
  119.0471  122.6546   84.6277 H   0  0  0  0  0  0  0  0  0  0  0  0
  119.1259  124.3275   87.6209 H   0  0  0  0  0  0  0  0  0  0  0  0
  120.8418  124.0602   88.0293 H   0  0  0  0  0  0  0  0  0  0  0  0
  1  2  1  0
  2  3  1  0
  3  4  1  0
  4  5  2  0
  5  6  1  0
  6  7  2  0
  7  8  1  0
  8  9  2  0
  9 10  1  0
 10 11  2  3
 11 12  1  0
 11 13  1  0
 13 14  2  3
 14 15  1  0
 14 16  1  0
  9  4  1  0
  1 17  1  0
  1 18  1  0
  1 19  1  0
  2 20  1  0
  2 21  1  0
  5 22  1  0
  6 23  1  0
  7 24  1  0
  8 25  1  0
 12 26  1  0
 12 27  1  0
 15 28  1  0
 15 29  1  0
 16 30  1  0
 16 31  1  0
M  END
>  <loss>  (8) 
0.3916689455509186

>  <score>  (8) 
7.148051738739014

$$$$
KRWFGEYBAWMPBG-UHFFFAOYSA-N
     RDKit          3D

 31 31  0  0  0  0  0  0  0  0999 V2000
  126.7277  122.0850   83.8520 C   0  0  0  0  0  0  0  0  0  0  0  0
  126.7694  122.1035   85.3700 C   0  0  0  0  0  0  0  0  0  0  0  0
  125.5872  121.4508   85.8481 O   0  0  0  0  0  0  0  0  0  0  0  0
  125.3967  121.5991   87.1995 C   0  0  0  0  0  0  0  0  0  0  0  0
  126.3763  121.0162   88.0088 C   0  0  0  0  0  0  0  0  0  0  0  0
  126.2694  121.0810   89.3976 C   0  0  0  0  0  0  0  0  0  0  0  0
  125.1753  121.7164   89.9803 C   0  0  0  0  0  0  0  0  0  0  0  0
  124.1819  122.2749   89.1728 C   0  0  0  0  0  0  0  0  0  0  0  0
  124.2666  122.2069   87.7771 C   0  0  0  0  0  0  0  0  0  0  0  0
  123.2218  122.7704   87.0237 N   0  0  0  0  0  0  0  0  0  0  0  0
  122.2412  122.0174   86.6264 C   0  0  0  0  0  0  0  0  0  0  0  0
  122.1151  120.6794   86.8480 N   0  0  0  0  0  0  0  0  0  0  0  0
  121.2130  122.5637   85.9080 N   0  0  0  0  0  0  0  0  0  0  0  0
  120.2093  123.1432   86.4670 C   0  0  0  0  0  0  0  0  0  0  0  0
  119.9516  123.3721   87.7762 N   0  0  0  0  0  0  0  0  0  0  0  0
  119.2073  123.6544   85.7135 N   0  0  0  0  0  0  0  0  0  0  0  0
  125.7703  121.6597   83.5167 H   0  0  0  0  0  0  0  0  0  0  0  0
  126.8268  123.1117   83.4700 H   0  0  0  0  0  0  0  0  0  0  0  0
  127.5559  121.4701   83.4700 H   0  0  0  0  0  0  0  0  0  0  0  0
  127.6623  121.5689   85.7265 H   0  0  0  0  0  0  0  0  0  0  0  0
  126.8139  123.1382   85.7408 H   0  0  0  0  0  0  0  0  0  0  0  0
  127.2344  120.5046   87.5484 H   0  0  0  0  0  0  0  0  0  0  0  0
  127.0476  120.6312   90.0318 H   0  0  0  0  0  0  0  0  0  0  0  0
  125.0938  121.7784   91.0755 H   0  0  0  0  0  0  0  0  0  0  0  0
  123.3209  122.7752   89.6401 H   0  0  0  0  0  0  0  0  0  0  0  0
  121.2936  120.1730   86.4879 H   0  0  0  0  0  0  0  0  0  0  0  0
  122.8411  120.1741   87.3756 H   0  0  0  0  0  0  0  0  0  0  0  0
  119.0866  123.8575   88.0536 H   0  0  0  0  0  0  0  0  0  0  0  0
  120.6207  123.0609   88.4948 H   0  0  0  0  0  0  0  0  0  0  0  0
  118.4065  124.1171   86.1668 H   0  0  0  0  0  0  0  0  0  0  0  0
  119.2458  123.5806   84.6868 H   0  0  0  0  0  0  0  0  0  0  0  0
  1  2  1  0
  2  3  1  0
  3  4  1  0
  4  5  2  0
  5  6  1  0
  6  7  2  0
  7  8  1  0
  8  9  2  0
  9 10  1  0
 10 11  2  3
 11 12  1  0
 11 13  1  0
 13 14  2  3
 14 15  1  0
 14 16  1  0
  9  4  1  0
  1 17  1  0
  1 18  1  0
  1 19  1  0
  2 20  1  0
  2 21  1  0
  5 22  1  0
  6 23  1  0
  7 24  1  0
  8 25  1  0
 12 26  1  0
 12 27  1  0
 15 28  1  0
 15 29  1  0
 16 30  1  0
 16 31  1  0
M  END
>  <loss>  (9) 
0.3948855400085449

>  <score>  (9) 
6.700525283813477

$$$$
KRWFGEYBAWMPBG-UHFFFAOYSA-N
     RDKit          3D

 31 31  0  0  0  0  0  0  0  0999 V2000
  126.7760  122.1229   83.8446 C   0  0  0  0  0  0  0  0  0  0  0  0
  126.5821  121.3808   85.1548 C   0  0  0  0  0  0  0  0  0  0  0  0
  125.5224  122.0175   85.8633 O   0  0  0  0  0  0  0  0  0  0  0  0
  125.4623  121.8270   87.2217 C   0  0  0  0  0  0  0  0  0  0  0  0
  126.4768  121.2495   87.9920 C   0  0  0  0  0  0  0  0  0  0  0  0
  126.3098  121.0901   89.3709 C   0  0  0  0  0  0  0  0  0  0  0  0
  125.1326  121.5057   89.9885 C   0  0  0  0  0  0  0  0  0  0  0  0
  124.1158  122.0790   89.2267 C   0  0  0  0  0  0  0  0  0  0  0  0
  124.2629  122.2329   87.8443 C   0  0  0  0  0  0  0  0  0  0  0  0
  123.2257  122.8421   87.1160 N   0  0  0  0  0  0  0  0  0  0  0  0
  122.3370  122.0978   86.5349 C   0  0  0  0  0  0  0  0  0  0  0  0
  122.2689  120.7380   86.5548 N   0  0  0  0  0  0  0  0  0  0  0  0
  121.3542  122.7188   85.8186 N   0  0  0  0  0  0  0  0  0  0  0  0
  120.2986  123.1397   86.4301 C   0  0  0  0  0  0  0  0  0  0  0  0
  119.3314  123.7749   85.7275 N   0  0  0  0  0  0  0  0  0  0  0  0
  120.0086  123.0927   87.7533 N   0  0  0  0  0  0  0  0  0  0  0  0
  127.0491  123.1680   84.0522 H   0  0  0  0  0  0  0  0  0  0  0  0
  127.5787  121.6421   83.2662 H   0  0  0  0  0  0  0  0  0  0  0  0
  125.8407  122.0962   83.2662 H   0  0  0  0  0  0  0  0  0  0  0  0
  126.3210  120.3310   84.9551 H   0  0  0  0  0  0  0  0  0  0  0  0
  127.5079  121.4010   85.7485 H   0  0  0  0  0  0  0  0  0  0  0  0
  127.4095  120.9197   87.5112 H   0  0  0  0  0  0  0  0  0  0  0  0
  127.1115  120.6344   89.9706 H   0  0  0  0  0  0  0  0  0  0  0  0
  125.0057  121.3819   91.0742 H   0  0  0  0  0  0  0  0  0  0  0  0
  123.1896  122.4134   89.7170 H   0  0  0  0  0  0  0  0  0  0  0  0
  121.5118  120.2528   86.0524 H   0  0  0  0  0  0  0  0  0  0  0  0
  122.9744  120.1945   87.0722 H   0  0  0  0  0  0  0  0  0  0  0  0
  118.4854  124.1144   86.2069 H   0  0  0  0  0  0  0  0  0  0  0  0
  119.4416  123.9187   84.7135 H   0  0  0  0  0  0  0  0  0  0  0  0
  119.1159  123.4729   88.0987 H   0  0  0  0  0  0  0  0  0  0  0  0
  120.6811  122.6767   88.4134 H   0  0  0  0  0  0  0  0  0  0  0  0
  1  2  1  0
  2  3  1  0
  3  4  1  0
  4  5  2  0
  5  6  1  0
  6  7  2  0
  7  8  1  0
  8  9  2  0
  9 10  1  0
 10 11  2  3
 11 12  1  0
 11 13  1  0
 13 14  2  3
 14 15  1  0
 14 16  1  0
  9  4  1  0
  1 17  1  0
  1 18  1  0
  1 19  1  0
  2 20  1  0
  2 21  1  0
  5 22  1  0
  6 23  1  0
  7 24  1  0
  8 25  1  0
 12 26  1  0
 12 27  1  0
 15 28  1  0
 15 29  1  0
 16 30  1  0
 16 31  1  0
M  END
>  <loss>  (10) 
0.405780166387558

>  <score>  (10) 
6.745003700256348

$$$$
KRWFGEYBAWMPBG-UHFFFAOYSA-N
     RDKit          3D

 31 31  0  0  0  0  0  0  0  0999 V2000
  126.7286  122.0685   83.8184 C   0  0  0  0  0  0  0  0  0  0  0  0
  126.5423  121.3594   85.1478 C   0  0  0  0  0  0  0  0  0  0  0  0
  125.5341  122.0555   85.8753 O   0  0  0  0  0  0  0  0  0  0  0  0
  125.4755  121.8527   87.2320 C   0  0  0  0  0  0  0  0  0  0  0  0
  126.4959  121.2797   87.9978 C   0  0  0  0  0  0  0  0  0  0  0  0
  126.3301  121.1065   89.3752 C   0  0  0  0  0  0  0  0  0  0  0  0
  125.1483  121.5041   89.9958 C   0  0  0  0  0  0  0  0  0  0  0  0
  124.1256  122.0729   89.2385 C   0  0  0  0  0  0  0  0  0  0  0  0
  124.2716  122.2402   87.8575 C   0  0  0  0  0  0  0  0  0  0  0  0
  123.2281  122.8444   87.1339 N   0  0  0  0  0  0  0  0  0  0  0  0
  122.3627  122.0953   86.5244 C   0  0  0  0  0  0  0  0  0  0  0  0
  122.3257  120.7342   86.5086 N   0  0  0  0  0  0  0  0  0  0  0  0
  121.3732  122.7122   85.8137 N   0  0  0  0  0  0  0  0  0  0  0  0
  120.3222  123.1344   86.4323 C   0  0  0  0  0  0  0  0  0  0  0  0
  119.3485  123.7655   85.7351 N   0  0  0  0  0  0  0  0  0  0  0  0
  120.0433  123.0925   87.7580 N   0  0  0  0  0  0  0  0  0  0  0  0
  127.0043  123.1181   83.9982 H   0  0  0  0  0  0  0  0  0  0  0  0
  127.5269  121.5725   83.2469 H   0  0  0  0  0  0  0  0  0  0  0  0
  125.7895  122.0288   83.2469 H   0  0  0  0  0  0  0  0  0  0  0  0
  126.2290  120.3190   84.9763 H   0  0  0  0  0  0  0  0  0  0  0  0
  127.4859  121.3487   85.7131 H   0  0  0  0  0  0  0  0  0  0  0  0
  127.4324  120.9641   87.5146 H   0  0  0  0  0  0  0  0  0  0  0  0
  127.1365  120.6544   89.9713 H   0  0  0  0  0  0  0  0  0  0  0  0
  125.0223  121.3696   91.0803 H   0  0  0  0  0  0  0  0  0  0  0  0
  123.1956  122.3929   89.7311 H   0  0  0  0  0  0  0  0  0  0  0  0
  121.5851  120.2452   85.9858 H   0  0  0  0  0  0  0  0  0  0  0  0
  123.0382  120.1938   87.0195 H   0  0  0  0  0  0  0  0  0  0  0  0
  118.5060  124.1060   86.2201 H   0  0  0  0  0  0  0  0  0  0  0  0
  119.4500  123.9052   84.7197 H   0  0  0  0  0  0  0  0  0  0  0  0
  119.1530  123.4730   88.1092 H   0  0  0  0  0  0  0  0  0  0  0  0
  120.7217  122.6801   88.4142 H   0  0  0  0  0  0  0  0  0  0  0  0
  1  2  1  0
  2  3  1  0
  3  4  1  0
  4  5  2  0
  5  6  1  0
  6  7  2  0
  7  8  1  0
  8  9  2  0
  9 10  1  0
 10 11  2  3
 11 12  1  0
 11 13  1  0
 13 14  2  3
 14 15  1  0
 14 16  1  0
  9  4  1  0
  1 17  1  0
  1 18  1  0
  1 19  1  0
  2 20  1  0
  2 21  1  0
  5 22  1  0
  6 23  1  0
  7 24  1  0
  8 25  1  0
 12 26  1  0
 12 27  1  0
 15 28  1  0
 15 29  1  0
 16 30  1  0
 16 31  1  0
M  END
>  <loss>  (11) 
0.4053744375705719

>  <score>  (11) 
6.680468559265137

$$$$
KRWFGEYBAWMPBG-UHFFFAOYSA-N
     RDKit          3D

 31 31  0  0  0  0  0  0  0  0999 V2000
  126.7268  122.0871   83.8405 C   0  0  0  0  0  0  0  0  0  0  0  0
  126.5136  122.4214   85.3065 C   0  0  0  0  0  0  0  0  0  0  0  0
  125.6139  121.4486   85.8508 O   0  0  0  0  0  0  0  0  0  0  0  0
  125.4197  121.5883   87.2026 C   0  0  0  0  0  0  0  0  0  0  0  0
  126.3722  120.9614   88.0113 C   0  0  0  0  0  0  0  0  0  0  0  0
  126.2584  121.0142   89.4000 C   0  0  0  0  0  0  0  0  0  0  0  0
  125.1839  121.6819   89.9830 C   0  0  0  0  0  0  0  0  0  0  0  0
  124.2167  122.2849   89.1758 C   0  0  0  0  0  0  0  0  0  0  0  0
  124.3083  122.2297   87.7800 C   0  0  0  0  0  0  0  0  0  0  0  0
  123.2894  122.8390   87.0265 N   0  0  0  0  0  0  0  0  0  0  0  0
  122.3981  122.0990   86.4398 C   0  0  0  0  0  0  0  0  0  0  0  0
  122.3483  120.7380   86.4538 N   0  0  0  0  0  0  0  0  0  0  0  0
  121.3942  122.6871   85.7198 N   0  0  0  0  0  0  0  0  0  0  0  0
  120.3222  123.1399   86.2689 C   0  0  0  0  0  0  0  0  0  0  0  0
  119.9598  123.1811   87.5726 N   0  0  0  0  0  0  0  0  0  0  0  0
  119.3490  123.6990   85.5117 N   0  0  0  0  0  0  0  0  0  0  0  0
  127.3164  121.1622   83.7573 H   0  0  0  0  0  0  0  0  0  0  0  0
  125.7518  121.9457   83.3512 H   0  0  0  0  0  0  0  0  0  0  0  0
  127.2665  122.9113   83.3512 H   0  0  0  0  0  0  0  0  0  0  0  0
  127.4737  122.3844   85.8423 H   0  0  0  0  0  0  0  0  0  0  0  0
  126.0960  123.4335   85.4133 H   0  0  0  0  0  0  0  0  0  0  0  0
  127.2145  120.4246   87.5504 H   0  0  0  0  0  0  0  0  0  0  0  0
  127.0156  120.5295   90.0338 H   0  0  0  0  0  0  0  0  0  0  0  0
  125.0972  121.7343   91.0784 H   0  0  0  0  0  0  0  0  0  0  0  0
  123.3710  122.8105   89.6434 H   0  0  0  0  0  0  0  0  0  0  0  0
  121.5951  120.2450   85.9533 H   0  0  0  0  0  0  0  0  0  0  0  0
  123.0638  120.2017   86.9650 H   0  0  0  0  0  0  0  0  0  0  0  0
  119.0512  123.5845   87.8420 H   0  0  0  0  0  0  0  0  0  0  0  0
  120.5926  122.8090   88.2951 H   0  0  0  0  0  0  0  0  0  0  0  0
  118.4932  124.0596   85.9572 H   0  0  0  0  0  0  0  0  0  0  0  0
  119.4644  123.7636   84.4903 H   0  0  0  0  0  0  0  0  0  0  0  0
  1  2  1  0
  2  3  1  0
  3  4  1  0
  4  5  2  0
  5  6  1  0
  6  7  2  0
  7  8  1  0
  8  9  2  0
  9 10  1  0
 10 11  2  3
 11 12  1  0
 11 13  1  0
 13 14  2  3
 14 15  1  0
 14 16  1  0
  9  4  1  0
  1 17  1  0
  1 18  1  0
  1 19  1  0
  2 20  1  0
  2 21  1  0
  5 22  1  0
  6 23  1  0
  7 24  1  0
  8 25  1  0
 12 26  1  0
 12 27  1  0
 15 28  1  0
 15 29  1  0
 16 30  1  0
 16 31  1  0
M  END
>  <loss>  (12) 
0.3568732738494873

>  <score>  (12) 
6.395325183868408

$$$$
KRWFGEYBAWMPBG-UHFFFAOYSA-N
     RDKit          3D

 31 31  0  0  0  0  0  0  0  0999 V2000
  126.8001  122.0468   83.7942 C   0  0  0  0  0  0  0  0  0  0  0  0
  126.2482  122.4322   85.1559 C   0  0  0  0  0  0  0  0  0  0  0  0
  126.4284  121.3178   86.0312 O   0  0  0  0  0  0  0  0  0  0  0  0
  125.7251  121.4336   87.2053 C   0  0  0  0  0  0  0  0  0  0  0  0
  126.5103  121.3907   88.3640 C   0  0  0  0  0  0  0  0  0  0  0  0
  125.9262  121.5438   89.6204 C   0  0  0  0  0  0  0  0  0  0  0  0
  124.5564  121.7665   89.7224 C   0  0  0  0  0  0  0  0  0  0  0  0
  123.7755  121.8383   88.5662 C   0  0  0  0  0  0  0  0  0  0  0  0
  124.3398  121.6618   87.2929 C   0  0  0  0  0  0  0  0  0  0  0  0
  123.5238  121.8312   86.1569 N   0  0  0  0  0  0  0  0  0  0  0  0
  122.2930  122.2197   86.2985 C   0  0  0  0  0  0  0  0  0  0  0  0
  121.5353  122.3561   85.1788 N   0  0  0  0  0  0  0  0  0  0  0  0
  121.7283  122.4299   87.5193 N   0  0  0  0  0  0  0  0  0  0  0  0
  120.5581  122.9621   87.5736 C   0  0  0  0  0  0  0  0  0  0  0  0
  119.9799  123.2205   88.7691 N   0  0  0  0  0  0  0  0  0  0  0  0
  119.7236  123.3317   86.5737 N   0  0  0  0  0  0  0  0  0  0  0  0
  127.6956  121.4215   83.9251 H   0  0  0  0  0  0  0  0  0  0  0  0
  126.0380  121.4835   83.2357 H   0  0  0  0  0  0  0  0  0  0  0  0
  127.0664  122.9563   83.2357 H   0  0  0  0  0  0  0  0  0  0  0  0
  126.7907  123.3060   85.5460 H   0  0  0  0  0  0  0  0  0  0  0  0
  125.1821  122.6920   85.0790 H   0  0  0  0  0  0  0  0  0  0  0  0
  127.5962  121.2349   88.2821 H   0  0  0  0  0  0  0  0  0  0  0  0
  126.5457  121.4889   90.5277 H   0  0  0  0  0  0  0  0  0  0  0  0
  124.0895  121.8858   90.7112 H   0  0  0  0  0  0  0  0  0  0  0  0
  122.6972  122.0370   88.6553 H   0  0  0  0  0  0  0  0  0  0  0  0
  120.5548  122.6625   85.2546 H   0  0  0  0  0  0  0  0  0  0  0  0
  121.9414  122.1531   84.2543 H   0  0  0  0  0  0  0  0  0  0  0  0
  119.0430  123.6466   88.8067 H   0  0  0  0  0  0  0  0  0  0  0  0
  120.4767  122.9910   89.6417 H   0  0  0  0  0  0  0  0  0  0  0  0
  118.8085  123.7496   86.7946 H   0  0  0  0  0  0  0  0  0  0  0  0
  120.0038  123.1950   85.5920 H   0  0  0  0  0  0  0  0  0  0  0  0
  1  2  1  0
  2  3  1  0
  3  4  1  0
  4  5  2  0
  5  6  1  0
  6  7  2  0
  7  8  1  0
  8  9  2  0
  9 10  1  0
 10 11  2  3
 11 12  1  0
 11 13  1  0
 13 14  2  3
 14 15  1  0
 14 16  1  0
  9  4  1  0
  1 17  1  0
  1 18  1  0
  1 19  1  0
  2 20  1  0
  2 21  1  0
  5 22  1  0
  6 23  1  0
  7 24  1  0
  8 25  1  0
 12 26  1  0
 12 27  1  0
 15 28  1  0
 15 29  1  0
 16 30  1  0
 16 31  1  0
M  END
>  <loss>  (13) 
0.537793755531311

>  <score>  (13) 
7.274543285369873

$$$$
KRWFGEYBAWMPBG-UHFFFAOYSA-N
     RDKit          3D

 31 31  0  0  0  0  0  0  0  0999 V2000
  126.8089  122.0433   83.8580 C   0  0  0  0  0  0  0  0  0  0  0  0
  126.4258  122.4743   85.2630 C   0  0  0  0  0  0  0  0  0  0  0  0
  125.6093  121.4427   85.8297 O   0  0  0  0  0  0  0  0  0  0  0  0
  125.4188  121.5854   87.1817 C   0  0  0  0  0  0  0  0  0  0  0  0
  126.3709  120.9561   87.9891 C   0  0  0  0  0  0  0  0  0  0  0  0
  126.2606  121.0117   89.3780 C   0  0  0  0  0  0  0  0  0  0  0  0
  125.1901  121.6845   89.9626 C   0  0  0  0  0  0  0  0  0  0  0  0
  124.2232  122.2898   89.1567 C   0  0  0  0  0  0  0  0  0  0  0  0
  124.3113  122.2320   87.7607 C   0  0  0  0  0  0  0  0  0  0  0  0
  123.2930  122.8440   87.0087 N   0  0  0  0  0  0  0  0  0  0  0  0
  122.3700  122.1099   86.4651 C   0  0  0  0  0  0  0  0  0  0  0  0
  122.2846  120.7519   86.5250 N   0  0  0  0  0  0  0  0  0  0  0  0
  121.3668  122.7013   85.7469 N   0  0  0  0  0  0  0  0  0  0  0  0
  120.2909  123.1446   86.2962 C   0  0  0  0  0  0  0  0  0  0  0  0
  119.9231  123.1714   87.5988 N   0  0  0  0  0  0  0  0  0  0  0  0
  119.3186  123.7075   85.5407 N   0  0  0  0  0  0  0  0  0  0  0  0
  127.5387  121.2222   83.9126 H   0  0  0  0  0  0  0  0  0  0  0  0
  125.9114  121.7012   83.3219 H   0  0  0  0  0  0  0  0  0  0  0  0
  127.2540  122.8945   83.3219 H   0  0  0  0  0  0  0  0  0  0  0  0
  127.3313  122.6120   85.8722 H   0  0  0  0  0  0  0  0  0  0  0  0
  125.8776  123.4276   85.2366 H   0  0  0  0  0  0  0  0  0  0  0  0
  127.2100  120.4153   87.5271 H   0  0  0  0  0  0  0  0  0  0  0  0
  127.0175  120.5251   90.0109 H   0  0  0  0  0  0  0  0  0  0  0  0
  125.1063  121.7389   91.0580 H   0  0  0  0  0  0  0  0  0  0  0  0
  123.3808  122.8194   89.6254 H   0  0  0  0  0  0  0  0  0  0  0  0
  121.5080  120.2636   86.0566 H   0  0  0  0  0  0  0  0  0  0  0  0
  122.9965  120.2132   87.0387 H   0  0  0  0  0  0  0  0  0  0  0  0
  119.0119  123.5687   87.8685 H   0  0  0  0  0  0  0  0  0  0  0  0
  120.5544  122.7945   88.3201 H   0  0  0  0  0  0  0  0  0  0  0  0
  118.4597  124.0605   85.9862 H   0  0  0  0  0  0  0  0  0  0  0  0
  119.4379  123.7828   84.5204 H   0  0  0  0  0  0  0  0  0  0  0  0
  1  2  1  0
  2  3  1  0
  3  4  1  0
  4  5  2  0
  5  6  1  0
  6  7  2  0
  7  8  1  0
  8  9  2  0
  9 10  1  0
 10 11  2  3
 11 12  1  0
 11 13  1  0
 13 14  2  3
 14 15  1  0
 14 16  1  0
  9  4  1  0
  1 17  1  0
  1 18  1  0
  1 19  1  0
  2 20  1  0
  2 21  1  0
  5 22  1  0
  6 23  1  0
  7 24  1  0
  8 25  1  0
 12 26  1  0
 12 27  1  0
 15 28  1  0
 15 29  1  0
 16 30  1  0
 16 31  1  0
M  END
>  <loss>  (14) 
0.36177173256874084

>  <score>  (14) 
6.382481575012207

$$$$
KRWFGEYBAWMPBG-UHFFFAOYSA-N
     RDKit          3D

 31 31  0  0  0  0  0  0  0  0999 V2000
  126.7654  122.0632   83.8325 C   0  0  0  0  0  0  0  0  0  0  0  0
  126.3298  122.4675   85.2304 C   0  0  0  0  0  0  0  0  0  0  0  0
  126.4743  121.3277   86.0793 O   0  0  0  0  0  0  0  0  0  0  0  0
  125.7554  121.4280   87.2454 C   0  0  0  0  0  0  0  0  0  0  0  0
  126.5328  121.4783   88.4091 C   0  0  0  0  0  0  0  0  0  0  0  0
  125.9294  121.6270   89.6570 C   0  0  0  0  0  0  0  0  0  0  0  0
  124.5463  121.7520   89.7445 C   0  0  0  0  0  0  0  0  0  0  0  0
  123.7711  121.7307   88.5825 C   0  0  0  0  0  0  0  0  0  0  0  0
  124.3566  121.5567   87.3183 C   0  0  0  0  0  0  0  0  0  0  0  0
  123.5391  121.6309   86.1733 N   0  0  0  0  0  0  0  0  0  0  0  0
  122.3336  122.1035   86.2703 C   0  0  0  0  0  0  0  0  0  0  0  0
  121.5727  122.1436   85.1452 N   0  0  0  0  0  0  0  0  0  0  0  0
  121.7949  122.4947   87.4578 N   0  0  0  0  0  0  0  0  0  0  0  0
  120.6422  123.0665   87.4530 C   0  0  0  0  0  0  0  0  0  0  0  0
  120.0911  123.5024   88.6090 N   0  0  0  0  0  0  0  0  0  0  0  0
  119.8035  123.3240   86.4219 N   0  0  0  0  0  0  0  0  0  0  0  0
  127.5701  121.3163   83.9008 H   0  0  0  0  0  0  0  0  0  0  0  0
  125.9098  121.6320   83.2922 H   0  0  0  0  0  0  0  0  0  0  0  0
  127.1318  122.9485   83.2922 H   0  0  0  0  0  0  0  0  0  0  0  0
  126.9626  123.2894   85.5966 H   0  0  0  0  0  0  0  0  0  0  0  0
  125.2849  122.8112   85.2231 H   0  0  0  0  0  0  0  0  0  0  0  0
  127.6277  121.4000   88.3380 H   0  0  0  0  0  0  0  0  0  0  0  0
  126.5443  121.6456   90.5689 H   0  0  0  0  0  0  0  0  0  0  0  0
  124.0643  121.8672   90.7266 H   0  0  0  0  0  0  0  0  0  0  0  0
  122.6806  121.8526   88.6595 H   0  0  0  0  0  0  0  0  0  0  0  0
  120.6119  122.5124   85.1862 H   0  0  0  0  0  0  0  0  0  0  0  0
  121.9567  121.8051   84.2514 H   0  0  0  0  0  0  0  0  0  0  0  0
  119.1680  123.9594   88.5993 H   0  0  0  0  0  0  0  0  0  0  0  0
  120.5944  123.3772   89.4989 H   0  0  0  0  0  0  0  0  0  0  0  0
  118.9050  123.7969   86.5947 H   0  0  0  0  0  0  0  0  0  0  0  0
  120.0639  123.0469   85.4647 H   0  0  0  0  0  0  0  0  0  0  0  0
  1  2  1  0
  2  3  1  0
  3  4  1  0
  4  5  2  0
  5  6  1  0
  6  7  2  0
  7  8  1  0
  8  9  2  0
  9 10  1  0
 10 11  2  3
 11 12  1  0
 11 13  1  0
 13 14  2  3
 14 15  1  0
 14 16  1  0
  9  4  1  0
  1 17  1  0
  1 18  1  0
  1 19  1  0
  2 20  1  0
  2 21  1  0
  5 22  1  0
  6 23  1  0
  7 24  1  0
  8 25  1  0
 12 26  1  0
 12 27  1  0
 15 28  1  0
 15 29  1  0
 16 30  1  0
 16 31  1  0
M  END
>  <loss>  (15) 
0.5341200828552246

>  <score>  (15) 
7.212055206298828

$$$$
KRWFGEYBAWMPBG-UHFFFAOYSA-N
     RDKit          3D

 31 31  0  0  0  0  0  0  0  0999 V2000
  126.7866  122.1191   83.8050 C   0  0  0  0  0  0  0  0  0  0  0  0
  126.7079  122.2772   85.3134 C   0  0  0  0  0  0  0  0  0  0  0  0
  125.7251  121.3551   85.7991 O   0  0  0  0  0  0  0  0  0  0  0  0
  125.4069  121.5502   87.1202 C   0  0  0  0  0  0  0  0  0  0  0  0
  126.3091  121.0061   88.0391 C   0  0  0  0  0  0  0  0  0  0  0  0
  126.0712  121.1199   89.4083 C   0  0  0  0  0  0  0  0  0  0  0  0
  124.9233  121.7657   89.8616 C   0  0  0  0  0  0  0  0  0  0  0  0
  124.0073  122.2854   88.9442 C   0  0  0  0  0  0  0  0  0  0  0  0
  124.2238  122.1679   87.5661 C   0  0  0  0  0  0  0  0  0  0  0  0
  123.2515  122.6941   86.6974 N   0  0  0  0  0  0  0  0  0  0  0  0
  122.1372  122.0512   86.5198 C   0  0  0  0  0  0  0  0  0  0  0  0
  121.7971  120.8610   87.0879 N   0  0  0  0  0  0  0  0  0  0  0  0
  121.1801  122.5672   85.6893 N   0  0  0  0  0  0  0  0  0  0  0  0
  120.1142  123.1367   86.1312 C   0  0  0  0  0  0  0  0  0  0  0  0
  119.7181  123.3811   87.4024 N   0  0  0  0  0  0  0  0  0  0  0  0
  119.1875  123.6175   85.2691 N   0  0  0  0  0  0  0  0  0  0  0  0
  127.2645  121.1588   83.5613 H   0  0  0  0  0  0  0  0  0  0  0  0
  125.7720  122.1419   83.3805 H   0  0  0  0  0  0  0  0  0  0  0  0
  127.3802  122.9422   83.3805 H   0  0  0  0  0  0  0  0  0  0  0  0
  127.6860  122.0539   85.7646 H   0  0  0  0  0  0  0  0  0  0  0  0
  126.4315  123.3085   85.5779 H   0  0  0  0  0  0  0  0  0  0  0  0
  127.2099  120.4863   87.6807 H   0  0  0  0  0  0  0  0  0  0  0  0
  126.7887  120.7006   90.1291 H   0  0  0  0  0  0  0  0  0  0  0  0
  124.7383  121.8663   90.9413 H   0  0  0  0  0  0  0  0  0  0  0  0
  123.1031  122.7942   89.3096 H   0  0  0  0  0  0  0  0  0  0  0  0
  120.8834  120.4335   86.8799 H   0  0  0  0  0  0  0  0  0  0  0  0
  122.4536  120.3884   87.7255 H   0  0  0  0  0  0  0  0  0  0  0  0
  118.8209  123.8546   87.5802 H   0  0  0  0  0  0  0  0  0  0  0  0
  120.3140  123.0935   88.1918 H   0  0  0  0  0  0  0  0  0  0  0  0
  118.3363  124.0723   85.6289 H   0  0  0  0  0  0  0  0  0  0  0  0
  119.3338  123.5284   84.2534 H   0  0  0  0  0  0  0  0  0  0  0  0
  1  2  1  0
  2  3  1  0
  3  4  1  0
  4  5  2  0
  5  6  1  0
  6  7  2  0
  7  8  1  0
  8  9  2  0
  9 10  1  0
 10 11  2  3
 11 12  1  0
 11 13  1  0
 13 14  2  3
 14 15  1  0
 14 16  1  0
  9  4  1  0
  1 17  1  0
  1 18  1  0
  1 19  1  0
  2 20  1  0
  2 21  1  0
  5 22  1  0
  6 23  1  0
  7 24  1  0
  8 25  1  0
 12 26  1  0
 12 27  1  0
 15 28  1  0
 15 29  1  0
 16 30  1  0
 16 31  1  0
M  END
>  <loss>  (16) 
0.3867684304714203

>  <score>  (16) 
6.459908962249756

$$$$
KRWFGEYBAWMPBG-UHFFFAOYSA-N
     RDKit          3D

 31 31  0  0  0  0  0  0  0  0999 V2000
  126.9342  122.1658   83.7644 C   0  0  0  0  0  0  0  0  0  0  0  0
  126.5484  122.5415   85.1840 C   0  0  0  0  0  0  0  0  0  0  0  0
  126.1530  121.3524   85.8590 O   0  0  0  0  0  0  0  0  0  0  0  0
  125.6273  121.4850   87.1214 C   0  0  0  0  0  0  0  0  0  0  0  0
  126.3872  121.5235   88.2969 C   0  0  0  0  0  0  0  0  0  0  0  0
  125.7608  121.6371   89.5419 C   0  0  0  0  0  0  0  0  0  0  0  0
  124.3728  121.7050   89.6244 C   0  0  0  0  0  0  0  0  0  0  0  0
  123.6083  121.6627   88.4596 C   0  0  0  0  0  0  0  0  0  0  0  0
  124.2210  121.5660   87.2037 C   0  0  0  0  0  0  0  0  0  0  0  0
  123.4032  121.5049   86.0583 N   0  0  0  0  0  0  0  0  0  0  0  0
  122.2266  122.0513   86.1024 C   0  0  0  0  0  0  0  0  0  0  0  0
  121.4723  122.0545   84.9710 N   0  0  0  0  0  0  0  0  0  0  0  0
  121.7187  122.6517   87.2138 N   0  0  0  0  0  0  0  0  0  0  0  0
  120.5561  123.1950   87.1206 C   0  0  0  0  0  0  0  0  0  0  0  0
  119.7240  123.2942   86.0562 N   0  0  0  0  0  0  0  0  0  0  0  0
  119.9888  123.7778   88.2027 N   0  0  0  0  0  0  0  0  0  0  0  0
  127.7221  121.3986   83.7895 H   0  0  0  0  0  0  0  0  0  0  0  0
  126.0535  121.7698   83.2377 H   0  0  0  0  0  0  0  0  0  0  0  0
  127.3066  123.0568   83.2377 H   0  0  0  0  0  0  0  0  0  0  0  0
  127.4091  122.9944   85.6978 H   0  0  0  0  0  0  0  0  0  0  0  0
  125.7244  123.2703   85.1770 H   0  0  0  0  0  0  0  0  0  0  0  0
  127.4842  121.4640   88.2406 H   0  0  0  0  0  0  0  0  0  0  0  0
  126.3669  121.6729   90.4592 H   0  0  0  0  0  0  0  0  0  0  0  0
  123.8814  121.7918   90.6047 H   0  0  0  0  0  0  0  0  0  0  0  0
  122.5112  121.7058   88.5274 H   0  0  0  0  0  0  0  0  0  0  0  0
  120.5349  122.4814   84.9781 H   0  0  0  0  0  0  0  0  0  0  0  0
  121.8383  121.6300   84.1068 H   0  0  0  0  0  0  0  0  0  0  0  0
  118.8152  123.7688   86.1554 H   0  0  0  0  0  0  0  0  0  0  0  0
  120.0000  122.8951   85.1477 H   0  0  0  0  0  0  0  0  0  0  0  0
  119.0580  124.2120   88.1252 H   0  0  0  0  0  0  0  0  0  0  0  0
  120.4880  123.7872   89.1036 H   0  0  0  0  0  0  0  0  0  0  0  0
  1  2  1  0
  2  3  1  0
  3  4  1  0
  4  5  2  0
  5  6  1  0
  6  7  2  0
  7  8  1  0
  8  9  2  0
  9 10  1  0
 10 11  2  3
 11 12  1  0
 11 13  1  0
 13 14  2  3
 14 15  1  0
 14 16  1  0
  9  4  1  0
  1 17  1  0
  1 18  1  0
  1 19  1  0
  2 20  1  0
  2 21  1  0
  5 22  1  0
  6 23  1  0
  7 24  1  0
  8 25  1  0
 12 26  1  0
 12 27  1  0
 15 28  1  0
 15 29  1  0
 16 30  1  0
 16 31  1  0
M  END
>  <loss>  (17) 
0.4392738938331604

>  <score>  (17) 
6.663154602050781

$$$$
KRWFGEYBAWMPBG-UHFFFAOYSA-N
     RDKit          3D

 31 31  0  0  0  0  0  0  0  0999 V2000
  126.8660  122.2547   83.7417 C   0  0  0  0  0  0  0  0  0  0  0  0
  126.7485  122.4671   85.2404 C   0  0  0  0  0  0  0  0  0  0  0  0
  126.0077  121.3779   85.7798 O   0  0  0  0  0  0  0  0  0  0  0  0
  125.5411  121.5038   87.0659 C   0  0  0  0  0  0  0  0  0  0  0  0
  126.3572  121.6128   88.1985 C   0  0  0  0  0  0  0  0  0  0  0  0
  125.7904  121.7131   89.4728 C   0  0  0  0  0  0  0  0  0  0  0  0
  124.4071  121.6975   89.6278 C   0  0  0  0  0  0  0  0  0  0  0  0
  123.5872  121.5845   88.5062 C   0  0  0  0  0  0  0  0  0  0  0  0
  124.1386  121.4999   87.2214 C   0  0  0  0  0  0  0  0  0  0  0  0
  123.2678  121.3655   86.1223 N   0  0  0  0  0  0  0  0  0  0  0  0
  122.1331  121.9953   86.1451 C   0  0  0  0  0  0  0  0  0  0  0  0
  121.3304  121.9216   85.0499 N   0  0  0  0  0  0  0  0  0  0  0  0
  121.7166  122.7543   87.1959 N   0  0  0  0  0  0  0  0  0  0  0  0
  120.5657  123.3222   87.1033 C   0  0  0  0  0  0  0  0  0  0  0  0
  119.6680  123.3108   86.0888 N   0  0  0  0  0  0  0  0  0  0  0  0
  120.0876  124.0620   88.1312 N   0  0  0  0  0  0  0  0  0  0  0  0
  127.3897  121.3075   83.5455 H   0  0  0  0  0  0  0  0  0  0  0  0
  125.8606  122.2168   83.2968 H   0  0  0  0  0  0  0  0  0  0  0  0
  127.4326  123.0860   83.2968 H   0  0  0  0  0  0  0  0  0  0  0  0
  127.7505  122.4983   85.6932 H   0  0  0  0  0  0  0  0  0  0  0  0
  126.2405  123.4192   85.4539 H   0  0  0  0  0  0  0  0  0  0  0  0
  127.4513  121.6196   88.0850 H   0  0  0  0  0  0  0  0  0  0  0  0
  126.4399  121.8048   90.3559 H   0  0  0  0  0  0  0  0  0  0  0  0
  123.9629  121.7739   90.6312 H   0  0  0  0  0  0  0  0  0  0  0  0
  122.4946  121.5616   88.6314 H   0  0  0  0  0  0  0  0  0  0  0  0
  120.4246  122.4118   85.0413 H   0  0  0  0  0  0  0  0  0  0  0  0
  121.6282  121.3755   84.2289 H   0  0  0  0  0  0  0  0  0  0  0  0
  118.7812  123.8267   86.1800 H   0  0  0  0  0  0  0  0  0  0  0  0
  119.8723  122.7862   85.2262 H   0  0  0  0  0  0  0  0  0  0  0  0
  119.1660  124.5155   88.0544 H   0  0  0  0  0  0  0  0  0  0  0  0
  120.6454  124.1714   88.9901 H   0  0  0  0  0  0  0  0  0  0  0  0
  1  2  1  0
  2  3  1  0
  3  4  1  0
  4  5  2  0
  5  6  1  0
  6  7  2  0
  7  8  1  0
  8  9  2  0
  9 10  1  0
 10 11  2  3
 11 12  1  0
 11 13  1  0
 13 14  2  3
 14 15  1  0
 14 16  1  0
  9  4  1  0
  1 17  1  0
  1 18  1  0
  1 19  1  0
  2 20  1  0
  2 21  1  0
  5 22  1  0
  6 23  1  0
  7 24  1  0
  8 25  1  0
 12 26  1  0
 12 27  1  0
 15 28  1  0
 15 29  1  0
 16 30  1  0
 16 31  1  0
M  END
>  <loss>  (18) 
0.45178237557411194

>  <score>  (18) 
6.463557720184326

$$$$
KRWFGEYBAWMPBG-UHFFFAOYSA-N
     RDKit          3D

 31 31  0  0  0  0  0  0  0  0999 V2000
  126.7965  121.6401   83.8310 C   0  0  0  0  0  0  0  0  0  0  0  0
  126.2732  121.1794   85.1802 C   0  0  0  0  0  0  0  0  0  0  0  0
  126.1556  122.3332   86.0210 O   0  0  0  0  0  0  0  0  0  0  0  0
  125.6456  122.0474   87.2631 C   0  0  0  0  0  0  0  0  0  0  0  0
  126.5552  121.4960   88.1703 C   0  0  0  0  0  0  0  0  0  0  0  0
  126.1395  121.1406   89.4530 C   0  0  0  0  0  0  0  0  0  0  0  0
  124.8100  121.3225   89.8267 C   0  0  0  0  0  0  0  0  0  0  0  0
  123.8942  121.8475   88.9120 C   0  0  0  0  0  0  0  0  0  0  0  0
  124.2916  122.1968   87.6160 C   0  0  0  0  0  0  0  0  0  0  0  0
  123.3148  122.6996   86.7385 N   0  0  0  0  0  0  0  0  0  0  0  0
  122.1922  122.0622   86.5978 C   0  0  0  0  0  0  0  0  0  0  0  0
  121.8466  120.8982   87.2148 N   0  0  0  0  0  0  0  0  0  0  0  0
  121.2311  122.5562   85.7587 N   0  0  0  0  0  0  0  0  0  0  0  0
  120.1840  123.1676   86.1894 C   0  0  0  0  0  0  0  0  0  0  0  0
  119.8146  123.4816   87.4534 N   0  0  0  0  0  0  0  0  0  0  0  0
  119.2520  123.6243   85.3200 N   0  0  0  0  0  0  0  0  0  0  0  0
  127.6144  122.3602   83.9814 H   0  0  0  0  0  0  0  0  0  0  0  0
  127.1706  120.7728   83.2672 H   0  0  0  0  0  0  0  0  0  0  0  0
  125.9836  122.1211   83.2672 H   0  0  0  0  0  0  0  0  0  0  0  0
  125.2889  120.7039   85.0573 H   0  0  0  0  0  0  0  0  0  0  0  0
  126.9591  120.4454   85.6283 H   0  0  0  0  0  0  0  0  0  0  0  0
  127.6025  121.3420   87.8713 H   0  0  0  0  0  0  0  0  0  0  0  0
  126.8601  120.7174   90.1684 H   0  0  0  0  0  0  0  0  0  0  0  0
  124.4816  121.0530   90.8413 H   0  0  0  0  0  0  0  0  0  0  0  0
  122.8460  121.9884   89.2143 H   0  0  0  0  0  0  0  0  0  0  0  0
  120.9264  120.4727   87.0333 H   0  0  0  0  0  0  0  0  0  0  0  0
  122.5055  120.4434   87.8628 H   0  0  0  0  0  0  0  0  0  0  0  0
  118.9299  123.9810   87.6224 H   0  0  0  0  0  0  0  0  0  0  0  0
  120.4184  123.2209   88.2462 H   0  0  0  0  0  0  0  0  0  0  0  0
  118.4160  124.1130   85.6709 H   0  0  0  0  0  0  0  0  0  0  0  0
  119.3789  123.4830   84.3077 H   0  0  0  0  0  0  0  0  0  0  0  0
  1  2  1  0
  2  3  1  0
  3  4  1  0
  4  5  2  0
  5  6  1  0
  6  7  2  0
  7  8  1  0
  8  9  2  0
  9 10  1  0
 10 11  2  3
 11 12  1  0
 11 13  1  0
 13 14  2  3
 14 15  1  0
 14 16  1  0
  9  4  1  0
  1 17  1  0
  1 18  1  0
  1 19  1  0
  2 20  1  0
  2 21  1  0
  5 22  1  0
  6 23  1  0
  7 24  1  0
  8 25  1  0
 12 26  1  0
 12 27  1  0
 15 28  1  0
 15 29  1  0
 16 30  1  0
 16 31  1  0
M  END
>  <loss>  (19) 
0.42682701349258423

>  <score>  (19) 
6.273087978363037

$$$$
KRWFGEYBAWMPBG-UHFFFAOYSA-N
     RDKit          3D

 31 31  0  0  0  0  0  0  0  0999 V2000
  126.7358  122.1934   83.7729 C   0  0  0  0  0  0  0  0  0  0  0  0
  126.3175  122.5805   85.1802 C   0  0  0  0  0  0  0  0  0  0  0  0
  126.1515  121.3832   85.9320 O   0  0  0  0  0  0  0  0  0  0  0  0
  125.7226  121.5052   87.2315 C   0  0  0  0  0  0  0  0  0  0  0  0
  126.5702  121.6639   88.3348 C   0  0  0  0  0  0  0  0  0  0  0  0
  126.0421  121.7558   89.6262 C   0  0  0  0  0  0  0  0  0  0  0  0
  124.6666  121.6820   89.8278 C   0  0  0  0  0  0  0  0  0  0  0  0
  123.8158  121.5193   88.7356 C   0  0  0  0  0  0  0  0  0  0  0  0
  124.3276  121.4424   87.4341 C   0  0  0  0  0  0  0  0  0  0  0  0
  123.4276  121.2563   86.3664 N   0  0  0  0  0  0  0  0  0  0  0  0
  122.2871  121.8751   86.3973 C   0  0  0  0  0  0  0  0  0  0  0  0
  121.4547  121.7505   85.3292 N   0  0  0  0  0  0  0  0  0  0  0  0
  121.8920  122.6704   87.4293 N   0  0  0  0  0  0  0  0  0  0  0  0
  120.7578  123.2685   87.3219 C   0  0  0  0  0  0  0  0  0  0  0  0
  119.8606  123.2586   86.3070 N   0  0  0  0  0  0  0  0  0  0  0  0
  120.3006  124.0460   88.3314 N   0  0  0  0  0  0  0  0  0  0  0  0
  127.5423  121.4471   83.8224 H   0  0  0  0  0  0  0  0  0  0  0  0
  125.8740  121.7671   83.2384 H   0  0  0  0  0  0  0  0  0  0  0  0
  127.0940  123.0856   83.2384 H   0  0  0  0  0  0  0  0  0  0  0  0
  127.0946  123.2072   85.6420 H   0  0  0  0  0  0  0  0  0  0  0  0
  125.3778  123.1519   85.1571 H   0  0  0  0  0  0  0  0  0  0  0  0
  127.6586  121.7167   88.1845 H   0  0  0  0  0  0  0  0  0  0  0  0
  126.7157  121.8868   90.4859 H   0  0  0  0  0  0  0  0  0  0  0  0
  124.2529  121.7519   90.8446 H   0  0  0  0  0  0  0  0  0  0  0  0
  122.7300  121.4506   88.8978 H   0  0  0  0  0  0  0  0  0  0  0  0
  120.5436  122.2309   85.3275 H   0  0  0  0  0  0  0  0  0  0  0  0
  121.7353  121.1756   84.5219 H   0  0  0  0  0  0  0  0  0  0  0  0
  118.9889  123.8017   86.3850 H   0  0  0  0  0  0  0  0  0  0  0  0
  120.0501  122.7080   85.4574 H   0  0  0  0  0  0  0  0  0  0  0  0
  119.3923  124.5236   88.2429 H   0  0  0  0  0  0  0  0  0  0  0  0
  120.8610  124.1599   89.1881 H   0  0  0  0  0  0  0  0  0  0  0  0
  1  2  1  0
  2  3  1  0
  3  4  1  0
  4  5  2  0
  5  6  1  0
  6  7  2  0
  7  8  1  0
  8  9  2  0
  9 10  1  0
 10 11  2  3
 11 12  1  0
 11 13  1  0
 13 14  2  3
 14 15  1  0
 14 16  1  0
  9  4  1  0
  1 17  1  0
  1 18  1  0
  1 19  1  0
  2 20  1  0
  2 21  1  0
  5 22  1  0
  6 23  1  0
  7 24  1  0
  8 25  1  0
 12 26  1  0
 12 27  1  0
 15 28  1  0
 15 29  1  0
 16 30  1  0
 16 31  1  0
M  END
>  <loss>  (20) 
0.5151750445365906

>  <score>  (20) 
6.621492862701416

$$$$
KRWFGEYBAWMPBG-UHFFFAOYSA-N
     RDKit          3D

 31 31  0  0  0  0  0  0  0  0999 V2000
  126.8111  122.2108   83.7737 C   0  0  0  0  0  0  0  0  0  0  0  0
  126.2568  122.5858   85.1365 C   0  0  0  0  0  0  0  0  0  0  0  0
  126.0998  121.3881   85.8895 O   0  0  0  0  0  0  0  0  0  0  0  0
  125.6893  121.5094   87.1951 C   0  0  0  0  0  0  0  0  0  0  0  0
  126.5520  121.6760   88.2854 C   0  0  0  0  0  0  0  0  0  0  0  0
  126.0424  121.7665   89.5844 C   0  0  0  0  0  0  0  0  0  0  0  0
  124.6706  121.6838   89.8064 C   0  0  0  0  0  0  0  0  0  0  0  0
  123.8049  121.5133   88.7272 C   0  0  0  0  0  0  0  0  0  0  0  0
  124.2979  121.4375   87.4184 C   0  0  0  0  0  0  0  0  0  0  0  0
  123.3835  121.2433   86.3645 N   0  0  0  0  0  0  0  0  0  0  0  0
  122.2524  121.8793   86.3953 C   0  0  0  0  0  0  0  0  0  0  0  0
  121.4065  121.7456   85.3390 N   0  0  0  0  0  0  0  0  0  0  0  0
  121.8803  122.7007   87.4153 N   0  0  0  0  0  0  0  0  0  0  0  0
  120.7482  123.3036   87.3138 C   0  0  0  0  0  0  0  0  0  0  0  0
  119.8333  123.2762   86.3151 N   0  0  0  0  0  0  0  0  0  0  0  0
  120.3135  124.1071   88.3129 N   0  0  0  0  0  0  0  0  0  0  0  0
  127.7160  121.5985   83.9018 H   0  0  0  0  0  0  0  0  0  0  0  0
  126.0562  121.6372   83.2160 H   0  0  0  0  0  0  0  0  0  0  0  0
  127.0628  123.1249   83.2160 H   0  0  0  0  0  0  0  0  0  0  0  0
  126.9555  123.2619   85.6511 H   0  0  0  0  0  0  0  0  0  0  0  0
  125.2905  123.1003   85.0288 H   0  0  0  0  0  0  0  0  0  0  0  0
  127.6377  121.7359   88.1189 H   0  0  0  0  0  0  0  0  0  0  0  0
  126.7278  121.9037   90.4337 H   0  0  0  0  0  0  0  0  0  0  0  0
  124.2715  121.7526   90.8291 H   0  0  0  0  0  0  0  0  0  0  0  0
  122.7221  121.4374   88.9056 H   0  0  0  0  0  0  0  0  0  0  0  0
  120.5024  122.2391   85.3375 H   0  0  0  0  0  0  0  0  0  0  0  0
  121.6697  121.1507   84.5404 H   0  0  0  0  0  0  0  0  0  0  0  0
  118.9664  123.8266   86.3956 H   0  0  0  0  0  0  0  0  0  0  0  0
  120.0045  122.7050   85.4753 H   0  0  0  0  0  0  0  0  0  0  0  0
  119.4067  124.5885   88.2290 H   0  0  0  0  0  0  0  0  0  0  0  0
  120.8894  124.2370   89.1568 H   0  0  0  0  0  0  0  0  0  0  0  0
  1  2  1  0
  2  3  1  0
  3  4  1  0
  4  5  2  0
  5  6  1  0
  6  7  2  0
  7  8  1  0
  8  9  2  0
  9 10  1  0
 10 11  2  3
 11 12  1  0
 11 13  1  0
 13 14  2  3
 14 15  1  0
 14 16  1  0
  9  4  1  0
  1 17  1  0
  1 18  1  0
  1 19  1  0
  2 20  1  0
  2 21  1  0
  5 22  1  0
  6 23  1  0
  7 24  1  0
  8 25  1  0
 12 26  1  0
 12 27  1  0
 15 28  1  0
 15 29  1  0
 16 30  1  0
 16 31  1  0
M  END
>  <loss>  (21) 
0.5168604850769043

>  <score>  (21) 
6.555386543273926

$$$$
KRWFGEYBAWMPBG-UHFFFAOYSA-N
     RDKit          3D

 31 31  0  0  0  0  0  0  0  0999 V2000
  126.8475  122.1802   83.8024 C   0  0  0  0  0  0  0  0  0  0  0  0
  126.6702  122.4822   85.2797 C   0  0  0  0  0  0  0  0  0  0  0  0
  125.9608  121.3963   85.8660 O   0  0  0  0  0  0  0  0  0  0  0  0
  125.5882  121.5197   87.1827 C   0  0  0  0  0  0  0  0  0  0  0  0
  126.4799  121.7188   88.2438 C   0  0  0  0  0  0  0  0  0  0  0  0
  126.0090  121.8089   89.5573 C   0  0  0  0  0  0  0  0  0  0  0  0
  124.6474  121.6932   89.8231 C   0  0  0  0  0  0  0  0  0  0  0  0
  123.7531  121.4902   88.7732 C   0  0  0  0  0  0  0  0  0  0  0  0
  124.2068  121.4144   87.4503 C   0  0  0  0  0  0  0  0  0  0  0  0
  123.2653  121.1867   86.4274 N   0  0  0  0  0  0  0  0  0  0  0  0
  122.1507  121.8516   86.4466 C   0  0  0  0  0  0  0  0  0  0  0  0
  121.2790  121.6824   85.4167 N   0  0  0  0  0  0  0  0  0  0  0  0
  121.8207  122.7359   87.4278 N   0  0  0  0  0  0  0  0  0  0  0  0
  120.7041  123.3650   87.3139 C   0  0  0  0  0  0  0  0  0  0  0  0
  119.7704  123.3115   86.3338 N   0  0  0  0  0  0  0  0  0  0  0  0
  120.3106  124.2321   88.2761 N   0  0  0  0  0  0  0  0  0  0  0  0
  127.4013  121.2370   83.6848 H   0  0  0  0  0  0  0  0  0  0  0  0
  125.8604  122.0876   83.3260 H   0  0  0  0  0  0  0  0  0  0  0  0
  127.4094  122.9971   83.3260 H   0  0  0  0  0  0  0  0  0  0  0  0
  127.6540  122.5887   85.7601 H   0  0  0  0  0  0  0  0  0  0  0  0
  126.1135  123.4212   85.4148 H   0  0  0  0  0  0  0  0  0  0  0  0
  127.5580  121.8049   88.0428 H   0  0  0  0  0  0  0  0  0  0  0  0
  126.7168  121.9717   90.3834 H   0  0  0  0  0  0  0  0  0  0  0  0
  124.2787  121.7617   90.8572 H   0  0  0  0  0  0  0  0  0  0  0  0
  122.6787  121.3884   88.9862 H   0  0  0  0  0  0  0  0  0  0  0  0
  120.3872  122.1977   85.4068 H   0  0  0  0  0  0  0  0  0  0  0  0
  121.5105  121.0389   84.6465 H   0  0  0  0  0  0  0  0  0  0  0  0
  118.9208  123.8901   86.3998 H   0  0  0  0  0  0  0  0  0  0  0  0
  119.9100  122.6922   85.5227 H   0  0  0  0  0  0  0  0  0  0  0  0
  119.4162  124.7343   88.1823 H   0  0  0  0  0  0  0  0  0  0  0  0
  120.9055  124.3895   89.1020 H   0  0  0  0  0  0  0  0  0  0  0  0
  1  2  1  0
  2  3  1  0
  3  4  1  0
  4  5  2  0
  5  6  1  0
  6  7  2  0
  7  8  1  0
  8  9  2  0
  9 10  1  0
 10 11  2  3
 11 12  1  0
 11 13  1  0
 13 14  2  3
 14 15  1  0
 14 16  1  0
  9  4  1  0
  1 17  1  0
  1 18  1  0
  1 19  1  0
  2 20  1  0
  2 21  1  0
  5 22  1  0
  6 23  1  0
  7 24  1  0
  8 25  1  0
 12 26  1  0
 12 27  1  0
 15 28  1  0
 15 29  1  0
 16 30  1  0
 16 31  1  0
M  END
>  <loss>  (22) 
0.5202199220657349

>  <score>  (22) 
6.473722457885742

$$$$
KRWFGEYBAWMPBG-UHFFFAOYSA-N
     RDKit          3D

 31 31  0  0  0  0  0  0  0  0999 V2000
  126.8781  121.8859   83.7551 C   0  0  0  0  0  0  0  0  0  0  0  0
  126.2906  121.2561   85.0063 C   0  0  0  0  0  0  0  0  0  0  0  0
  126.4271  122.1959   86.0733 O   0  0  0  0  0  0  0  0  0  0  0  0
  125.6747  121.8741   87.1764 C   0  0  0  0  0  0  0  0  0  0  0  0
  126.3802  121.8753   88.3861 C   0  0  0  0  0  0  0  0  0  0  0  0
  125.7245  121.6111   89.5876 C   0  0  0  0  0  0  0  0  0  0  0  0
  124.3541  121.3697   89.5877 C   0  0  0  0  0  0  0  0  0  0  0  0
  123.6431  121.3963   88.3854 C   0  0  0  0  0  0  0  0  0  0  0  0
  124.2885  121.6355   87.1617 C   0  0  0  0  0  0  0  0  0  0  0  0
  123.5116  121.7385   85.9909 N   0  0  0  0  0  0  0  0  0  0  0  0
  122.3112  122.2295   86.0538 C   0  0  0  0  0  0  0  0  0  0  0  0
  121.5896  122.2973   84.9044 N   0  0  0  0  0  0  0  0  0  0  0  0
  121.7388  122.6133   87.2280 N   0  0  0  0  0  0  0  0  0  0  0  0
  120.5652  123.1400   87.1981 C   0  0  0  0  0  0  0  0  0  0  0  0
  119.9792  123.5676   88.3400 N   0  0  0  0  0  0  0  0  0  0  0  0
  119.7339  123.3530   86.1510 N   0  0  0  0  0  0  0  0  0  0  0  0
  127.6025  122.6626   84.0411 H   0  0  0  0  0  0  0  0  0  0  0  0
  127.3853  121.1130   83.1590 H   0  0  0  0  0  0  0  0  0  0  0  0
  126.0717  122.3382   83.1590 H   0  0  0  0  0  0  0  0  0  0  0  0
  125.2274  121.0248   84.8451 H   0  0  0  0  0  0  0  0  0  0  0  0
  126.8160  120.3205   85.2487 H   0  0  0  0  0  0  0  0  0  0  0  0
  127.4598  122.0862   88.3882 H   0  0  0  0  0  0  0  0  0  0  0  0
  126.2883  121.5935   90.5320 H   0  0  0  0  0  0  0  0  0  0  0  0
  123.8317  121.1583   90.5323 H   0  0  0  0  0  0  0  0  0  0  0  0
  122.5564  121.2265   88.3977 H   0  0  0  0  0  0  0  0  0  0  0  0
  120.6340  122.6812   84.9182 H   0  0  0  0  0  0  0  0  0  0  0  0
  121.9983  121.9647   84.0194 H   0  0  0  0  0  0  0  0  0  0  0  0
  119.0395  123.9885   88.3103 H   0  0  0  0  0  0  0  0  0  0  0  0
  120.4726  123.4723   89.2391 H   0  0  0  0  0  0  0  0  0  0  0  0
  118.8152  123.7928   86.3040 H   0  0  0  0  0  0  0  0  0  0  0  0
  120.0202  123.0751   85.2014 H   0  0  0  0  0  0  0  0  0  0  0  0
  1  2  1  0
  2  3  1  0
  3  4  1  0
  4  5  2  0
  5  6  1  0
  6  7  2  0
  7  8  1  0
  8  9  2  0
  9 10  1  0
 10 11  2  3
 11 12  1  0
 11 13  1  0
 13 14  2  3
 14 15  1  0
 14 16  1  0
  9  4  1  0
  1 17  1  0
  1 18  1  0
  1 19  1  0
  2 20  1  0
  2 21  1  0
  5 22  1  0
  6 23  1  0
  7 24  1  0
  8 25  1  0
 12 26  1  0
 12 27  1  0
 15 28  1  0
 15 29  1  0
 16 30  1  0
 16 31  1  0
M  END
>  <loss>  (23) 
0.4644967317581177

>  <score>  (23) 
6.1032562255859375

$$$$
KRWFGEYBAWMPBG-UHFFFAOYSA-N
     RDKit          3D

 31 31  0  0  0  0  0  0  0  0999 V2000
  126.8791  121.8577   83.7578 C   0  0  0  0  0  0  0  0  0  0  0  0
  126.4640  121.2284   85.0766 C   0  0  0  0  0  0  0  0  0  0  0  0
  126.3742  122.2712   86.0487 O   0  0  0  0  0  0  0  0  0  0  0  0
  125.6287  121.9222   87.1481 C   0  0  0  0  0  0  0  0  0  0  0  0
  126.3386  121.9071   88.3552 C   0  0  0  0  0  0  0  0  0  0  0  0
  125.6897  121.6148   89.5539 C   0  0  0  0  0  0  0  0  0  0  0  0
  124.3214  121.3612   89.5541 C   0  0  0  0  0  0  0  0  0  0  0  0
  123.6059  121.4038   88.3550 C   0  0  0  0  0  0  0  0  0  0  0  0
  124.2446  121.6715   87.1338 C   0  0  0  0  0  0  0  0  0  0  0  0
  123.4626  121.7894   85.9678 N   0  0  0  0  0  0  0  0  0  0  0  0
  122.2523  122.2527   86.0465 C   0  0  0  0  0  0  0  0  0  0  0  0
  121.5263  122.3360   84.9008 N   0  0  0  0  0  0  0  0  0  0  0  0
  121.6750  122.5926   87.2317 N   0  0  0  0  0  0  0  0  0  0  0  0
  120.4918  123.0981   87.2182 C   0  0  0  0  0  0  0  0  0  0  0  0
  119.9000  123.4824   88.3725 N   0  0  0  0  0  0  0  0  0  0  0  0
  119.6549  123.3251   86.1786 N   0  0  0  0  0  0  0  0  0  0  0  0
  127.4749  122.7613   83.9542 H   0  0  0  0  0  0  0  0  0  0  0  0
  127.4812  121.1394   83.1821 H   0  0  0  0  0  0  0  0  0  0  0  0
  125.9816  122.1283   83.1821 H   0  0  0  0  0  0  0  0  0  0  0  0
  125.4869  120.7356   84.9650 H   0  0  0  0  0  0  0  0  0  0  0  0
  127.1995  120.4729   85.3902 H   0  0  0  0  0  0  0  0  0  0  0  0
  127.4162  122.1276   88.3575 H   0  0  0  0  0  0  0  0  0  0  0  0
  126.2570  121.5847   90.4958 H   0  0  0  0  0  0  0  0  0  0  0  0
  123.8044  121.1277   90.4965 H   0  0  0  0  0  0  0  0  0  0  0  0
  122.5207  121.2241   88.3680 H   0  0  0  0  0  0  0  0  0  0  0  0
  120.5628  122.6989   84.9269 H   0  0  0  0  0  0  0  0  0  0  0  0
  121.9397  122.0361   84.0063 H   0  0  0  0  0  0  0  0  0  0  0  0
  118.9527  123.8865   88.3559 H   0  0  0  0  0  0  0  0  0  0  0  0
  120.3966  123.3709   89.2679 H   0  0  0  0  0  0  0  0  0  0  0  0
  118.7284  123.7434   86.3451 H   0  0  0  0  0  0  0  0  0  0  0  0
  119.9445  123.0796   85.2211 H   0  0  0  0  0  0  0  0  0  0  0  0
  1  2  1  0
  2  3  1  0
  3  4  1  0
  4  5  2  0
  5  6  1  0
  6  7  2  0
  7  8  1  0
  8  9  2  0
  9 10  1  0
 10 11  2  3
 11 12  1  0
 11 13  1  0
 13 14  2  3
 14 15  1  0
 14 16  1  0
  9  4  1  0
  1 17  1  0
  1 18  1  0
  1 19  1  0
  2 20  1  0
  2 21  1  0
  5 22  1  0
  6 23  1  0
  7 24  1  0
  8 25  1  0
 12 26  1  0
 12 27  1  0
 15 28  1  0
 15 29  1  0
 16 30  1  0
 16 31  1  0
M  END
>  <loss>  (24) 
0.48255079984664917

>  <score>  (24) 
5.958136558532715

$$$$
KRWFGEYBAWMPBG-UHFFFAOYSA-N
     RDKit          3D

 31 31  0  0  0  0  0  0  0  0999 V2000
  126.8690  121.8312   83.8267 C   0  0  0  0  0  0  0  0  0  0  0  0
  126.5043  121.2625   85.1872 C   0  0  0  0  0  0  0  0  0  0  0  0
  126.1574  122.3559   86.0385 O   0  0  0  0  0  0  0  0  0  0  0  0
  125.5959  121.9581   87.2271 C   0  0  0  0  0  0  0  0  0  0  0  0
  126.4144  122.1367   88.3493 C   0  0  0  0  0  0  0  0  0  0  0  0
  125.9477  121.8169   89.6234 C   0  0  0  0  0  0  0  0  0  0  0  0
  124.6501  121.3409   89.7839 C   0  0  0  0  0  0  0  0  0  0  0  0
  123.8220  121.1890   88.6690 C   0  0  0  0  0  0  0  0  0  0  0  0
  124.2807  121.4814   87.3747 C   0  0  0  0  0  0  0  0  0  0  0  0
  123.3779  121.3946   86.2966 N   0  0  0  0  0  0  0  0  0  0  0  0
  122.2316  122.0006   86.3642 C   0  0  0  0  0  0  0  0  0  0  0  0
  121.3836  121.8791   85.3094 N   0  0  0  0  0  0  0  0  0  0  0  0
  121.8331  122.6904   87.4682 N   0  0  0  0  0  0  0  0  0  0  0  0
  120.6949  123.2899   87.4427 C   0  0  0  0  0  0  0  0  0  0  0  0
  120.2811  124.0159   88.5066 N   0  0  0  0  0  0  0  0  0  0  0  0
  119.7507  123.3225   86.4729 N   0  0  0  0  0  0  0  0  0  0  0  0
  127.4584  122.7504   83.9595 H   0  0  0  0  0  0  0  0  0  0  0  0
  127.4624  121.0927   83.2676 H   0  0  0  0  0  0  0  0  0  0  0  0
  125.9503  122.0624   83.2676 H   0  0  0  0  0  0  0  0  0  0  0  0
  125.6488  120.5781   85.0896 H   0  0  0  0  0  0  0  0  0  0  0  0
  127.3512  120.7011   85.6086 H   0  0  0  0  0  0  0  0  0  0  0  0
  127.4332  122.5323   88.2244 H   0  0  0  0  0  0  0  0  0  0  0  0
  126.6027  121.9405   90.4984 H   0  0  0  0  0  0  0  0  0  0  0  0
  124.2770  121.0847   90.7865 H   0  0  0  0  0  0  0  0  0  0  0  0
  122.7904  120.8333   88.8080 H   0  0  0  0  0  0  0  0  0  0  0  0
  120.4661  122.3466   85.3297 H   0  0  0  0  0  0  0  0  0  0  0  0
  121.6584  121.3194   84.4895 H   0  0  0  0  0  0  0  0  0  0  0  0
  119.3690  124.4937   88.4808 H   0  0  0  0  0  0  0  0  0  0  0  0
  120.8782  124.0907   89.3426 H   0  0  0  0  0  0  0  0  0  0  0  0
  118.8834  123.8592   86.6165 H   0  0  0  0  0  0  0  0  0  0  0  0
  119.8997  122.8106   85.5917 H   0  0  0  0  0  0  0  0  0  0  0  0
  1  2  1  0
  2  3  1  0
  3  4  1  0
  4  5  2  0
  5  6  1  0
  6  7  2  0
  7  8  1  0
  8  9  2  0
  9 10  1  0
 10 11  2  3
 11 12  1  0
 11 13  1  0
 13 14  2  3
 14 15  1  0
 14 16  1  0
  9  4  1  0
  1 17  1  0
  1 18  1  0
  1 19  1  0
  2 20  1  0
  2 21  1  0
  5 22  1  0
  6 23  1  0
  7 24  1  0
  8 25  1  0
 12 26  1  0
 12 27  1  0
 15 28  1  0
 15 29  1  0
 16 30  1  0
 16 31  1  0
M  END
>  <loss>  (25) 
0.5469933152198792

>  <score>  (25) 
5.6537370681762695

$$$$
