LCRZUPUZVGGZJD-UHFFFAOYSA-N
     RDKit          3D

 24 24  0  0  0  0  0  0  0  0999 V2000
  120.5749  127.1114   85.4397 N   0  0  0  0  0  0  0  0  0  0  0  0
  120.7401  126.0546   84.9888 C   0  0  0  0  0  0  0  0  0  0  0  0
  121.0013  124.7200   84.4311 C   0  0  0  0  0  0  0  0  0  0  0  0
  120.5141  123.6276   85.3882 C   0  0  0  0  0  0  0  0  0  0  0  0
  119.2157  123.1936   84.9614 O   0  0  0  0  0  0  0  0  0  0  0  0
  121.4879  122.4355   85.4248 C   0  0  0  0  0  0  0  0  0  0  0  0
  121.5514  121.9135   86.7532 O   0  0  0  0  0  0  0  0  0  0  0  0
  122.7855  121.8187   87.3324 C   0  0  0  0  0  0  0  0  0  0  0  0
  124.0115  121.8428   86.6651 C   0  0  0  0  0  0  0  0  0  0  0  0
  125.2054  121.7332   87.3875 C   0  0  0  0  0  0  0  0  0  0  0  0
  125.1723  121.5999   88.7742 C   0  0  0  0  0  0  0  0  0  0  0  0
  126.6426  121.4657   89.6561 Cl  0  0  0  0  0  0  0  0  0  0  0  0
  123.9547  121.5750   89.4475 C   0  0  0  0  0  0  0  0  0  0  0  0
  122.7648  121.6843   88.7242 C   0  0  0  0  0  0  0  0  0  0  0  0
  120.4737  124.6204   83.4710 H   0  0  0  0  0  0  0  0  0  0  0  0
  122.0854  124.6041   84.2851 H   0  0  0  0  0  0  0  0  0  0  0  0
  120.4631  124.0398   86.4067 H   0  0  0  0  0  0  0  0  0  0  0  0
  118.6535  123.0058   85.7543 H   0  0  0  0  0  0  0  0  0  0  0  0
  121.1338  121.6515   84.7393 H   0  0  0  0  0  0  0  0  0  0  0  0
  122.4887  122.7697   85.1138 H   0  0  0  0  0  0  0  0  0  0  0  0
  124.0393  121.9480   85.5705 H   0  0  0  0  0  0  0  0  0  0  0  0
  126.1706  121.7524   86.8602 H   0  0  0  0  0  0  0  0  0  0  0  0
  123.9295  121.4699   90.5422 H   0  0  0  0  0  0  0  0  0  0  0  0
  121.8015  121.6645   89.2549 H   0  0  0  0  0  0  0  0  0  0  0  0
  1  2  3  0
  2  3  1  0
  3  4  1  0
  4  5  1  0
  4  6  1  0
  6  7  1  0
  7  8  1  0
  8  9  2  0
  9 10  1  0
 10 11  2  0
 11 12  1  0
 11 13  1  0
 13 14  2  0
 14  8  1  0
  3 15  1  0
  3 16  1  0
  4 17  1  0
  5 18  1  0
  6 19  1  0
  6 20  1  0
  9 21  1  0
 10 22  1  0
 13 23  1  0
 14 24  1  0
M  END
>  <loss>  (1) 
0.6630451679229736

>  <score>  (1) 
3.6488356590270996

$$$$
LCRZUPUZVGGZJD-UHFFFAOYSA-N
     RDKit          3D

 24 24  0  0  0  0  0  0  0  0999 V2000
  121.2794  125.0175   82.6381 N   0  0  0  0  0  0  0  0  0  0  0  0
  121.1040  124.1697   83.4103 C   0  0  0  0  0  0  0  0  0  0  0  0
  120.8867  123.1119   84.4058 C   0  0  0  0  0  0  0  0  0  0  0  0
  120.3594  123.7059   85.7142 C   0  0  0  0  0  0  0  0  0  0  0  0
  118.9262  123.6412   85.7087 O   0  0  0  0  0  0  0  0  0  0  0  0
  120.8875  122.9090   86.9182 C   0  0  0  0  0  0  0  0  0  0  0  0
  121.8597  121.9504   86.4806 O   0  0  0  0  0  0  0  0  0  0  0  0
  123.0240  121.8528   87.1869 C   0  0  0  0  0  0  0  0  0  0  0  0
  122.8777  121.4356   88.5132 C   0  0  0  0  0  0  0  0  0  0  0  0
  123.9951  121.2785   89.3365 C   0  0  0  0  0  0  0  0  0  0  0  0
  125.2659  121.5264   88.8251 C   0  0  0  0  0  0  0  0  0  0  0  0
  126.6471  121.3334   89.8319 Cl  0  0  0  0  0  0  0  0  0  0  0  0
  125.4245  121.9216   87.4985 C   0  0  0  0  0  0  0  0  0  0  0  0
  124.3027  122.0789   86.6773 C   0  0  0  0  0  0  0  0  0  0  0  0
  120.1534  122.3916   84.0140 H   0  0  0  0  0  0  0  0  0  0  0  0
  121.8444  122.6086   84.6044 H   0  0  0  0  0  0  0  0  0  0  0  0
  120.7001  124.7486   85.7970 H   0  0  0  0  0  0  0  0  0  0  0  0
  118.5929  123.6262   86.6409 H   0  0  0  0  0  0  0  0  0  0  0  0
  121.3539  123.5995   87.6363 H   0  0  0  0  0  0  0  0  0  0  0  0
  120.0502  122.3819   87.3989 H   0  0  0  0  0  0  0  0  0  0  0  0
  121.8735  121.2293   88.9120 H   0  0  0  0  0  0  0  0  0  0  0  0
  123.8717  120.9608   90.3824 H   0  0  0  0  0  0  0  0  0  0  0  0
  126.4311  122.1098   87.0970 H   0  0  0  0  0  0  0  0  0  0  0  0
  124.4293  122.3816   85.6273 H   0  0  0  0  0  0  0  0  0  0  0  0
  1  2  3  0
  2  3  1  0
  3  4  1  0
  4  5  1  0
  4  6  1  0
  6  7  1  0
  7  8  1  0
  8  9  2  0
  9 10  1  0
 10 11  2  0
 11 12  1  0
 11 13  1  0
 13 14  2  0
 14  8  1  0
  3 15  1  0
  3 16  1  0
  4 17  1  0
  5 18  1  0
  6 19  1  0
  6 20  1  0
  9 21  1  0
 10 22  1  0
 13 23  1  0
 14 24  1  0
M  END
>  <loss>  (2) 
0.6444776058197021

>  <score>  (2) 
3.5425267219543457

$$$$
LCRZUPUZVGGZJD-UHFFFAOYSA-N
     RDKit          3D

 24 24  0  0  0  0  0  0  0  0999 V2000
  121.2035  124.9888   82.8635 N   0  0  0  0  0  0  0  0  0  0  0  0
  121.0593  124.0299   83.5003 C   0  0  0  0  0  0  0  0  0  0  0  0
  120.8404  122.8411   84.3325 C   0  0  0  0  0  0  0  0  0  0  0  0
  120.1381  123.1830   85.6537 C   0  0  0  0  0  0  0  0  0  0  0  0
  119.8253  124.5783   85.7274 O   0  0  0  0  0  0  0  0  0  0  0  0
  120.8989  122.7344   86.9124 C   0  0  0  0  0  0  0  0  0  0  0  0
  121.8358  121.6995   86.6252 O   0  0  0  0  0  0  0  0  0  0  0  0
  123.0444  121.7051   87.2611 C   0  0  0  0  0  0  0  0  0  0  0  0
  122.9822  121.3608   88.6157 C   0  0  0  0  0  0  0  0  0  0  0  0
  124.1380  121.3296   89.3994 C   0  0  0  0  0  0  0  0  0  0  0  0
  125.3651  121.6453   88.8250 C   0  0  0  0  0  0  0  0  0  0  0  0
  126.7939  121.6113   89.7814 Cl  0  0  0  0  0  0  0  0  0  0  0  0
  125.4405  121.9896   87.4772 C   0  0  0  0  0  0  0  0  0  0  0  0
  124.2802  122.0197   86.6943 C   0  0  0  0  0  0  0  0  0  0  0  0
  120.2174  122.1270   83.7740 H   0  0  0  0  0  0  0  0  0  0  0  0
  121.8234  122.4101   84.5729 H   0  0  0  0  0  0  0  0  0  0  0  0
  119.2061  122.5989   85.6420 H   0  0  0  0  0  0  0  0  0  0  0  0
  119.7637  124.8529   86.6766 H   0  0  0  0  0  0  0  0  0  0  0  0
  121.4388  123.5977   87.3284 H   0  0  0  0  0  0  0  0  0  0  0  0
  120.1660  122.3412   87.6323 H   0  0  0  0  0  0  0  0  0  0  0  0
  122.0114  121.1116   89.0691 H   0  0  0  0  0  0  0  0  0  0  0  0
  124.0784  121.0573   90.4635 H   0  0  0  0  0  0  0  0  0  0  0  0
  126.4131  122.2384   87.0275 H   0  0  0  0  0  0  0  0  0  0  0  0
  124.3428  122.2917   85.6303 H   0  0  0  0  0  0  0  0  0  0  0  0
  1  2  3  0
  2  3  1  0
  3  4  1  0
  4  5  1  0
  4  6  1  0
  6  7  1  0
  7  8  1  0
  8  9  2  0
  9 10  1  0
 10 11  2  0
 11 12  1  0
 11 13  1  0
 13 14  2  0
 14  8  1  0
  3 15  1  0
  3 16  1  0
  4 17  1  0
  5 18  1  0
  6 19  1  0
  6 20  1  0
  9 21  1  0
 10 22  1  0
 13 23  1  0
 14 24  1  0
M  END
>  <loss>  (3) 
0.6604506373405457

>  <score>  (3) 
3.569646120071411

$$$$
LCRZUPUZVGGZJD-UHFFFAOYSA-N
     RDKit          3D

 24 24  0  0  0  0  0  0  0  0999 V2000
  121.1595  125.5542   83.2701 N   0  0  0  0  0  0  0  0  0  0  0  0
  120.9843  124.4966   83.7152 C   0  0  0  0  0  0  0  0  0  0  0  0
  120.7734  123.1470   84.2549 C   0  0  0  0  0  0  0  0  0  0  0  0
  120.0318  123.1162   85.5967 C   0  0  0  0  0  0  0  0  0  0  0  0
  119.5695  124.4250   85.9467 O   0  0  0  0  0  0  0  0  0  0  0  0
  120.8187  122.4966   86.7624 C   0  0  0  0  0  0  0  0  0  0  0  0
  122.0833  122.0472   86.2780 O   0  0  0  0  0  0  0  0  0  0  0  0
  123.0682  121.8491   87.2032 C   0  0  0  0  0  0  0  0  0  0  0  0
  122.8745  121.4675   88.5317 C   0  0  0  0  0  0  0  0  0  0  0  0
  123.9751  121.3090   89.3811 C   0  0  0  0  0  0  0  0  0  0  0  0
  125.2643  121.5362   88.9023 C   0  0  0  0  0  0  0  0  0  0  0  0
  126.6129  121.3388   89.9516 Cl  0  0  0  0  0  0  0  0  0  0  0  0
  125.4644  121.9245   87.5808 C   0  0  0  0  0  0  0  0  0  0  0  0
  124.3645  122.0833   86.7352 C   0  0  0  0  0  0  0  0  0  0  0  0
  120.1878  122.5705   83.5237 H   0  0  0  0  0  0  0  0  0  0  0  0
  121.7705  122.7187   84.4346 H   0  0  0  0  0  0  0  0  0  0  0  0
  119.1780  122.4420   85.4343 H   0  0  0  0  0  0  0  0  0  0  0  0
  119.5390  124.5116   86.9324 H   0  0  0  0  0  0  0  0  0  0  0  0
  120.9710  123.2514   87.5479 H   0  0  0  0  0  0  0  0  0  0  0  0
  120.2574  121.6489   87.1826 H   0  0  0  0  0  0  0  0  0  0  0  0
  121.8570  121.2914   88.9107 H   0  0  0  0  0  0  0  0  0  0  0  0
  123.8228  121.0049   90.4273 H   0  0  0  0  0  0  0  0  0  0  0  0
  126.4823  122.1051   87.2049 H   0  0  0  0  0  0  0  0  0  0  0  0
  124.5194  122.3954   85.6918 H   0  0  0  0  0  0  0  0  0  0  0  0
  1  2  3  0
  2  3  1  0
  3  4  1  0
  4  5  1  0
  4  6  1  0
  6  7  1  0
  7  8  1  0
  8  9  2  0
  9 10  1  0
 10 11  2  0
 11 12  1  0
 11 13  1  0
 13 14  2  0
 14  8  1  0
  3 15  1  0
  3 16  1  0
  4 17  1  0
  5 18  1  0
  6 19  1  0
  6 20  1  0
  9 21  1  0
 10 22  1  0
 13 23  1  0
 14 24  1  0
M  END
>  <loss>  (4) 
0.6546099781990051

>  <score>  (4) 
3.5255141258239746

$$$$
LCRZUPUZVGGZJD-UHFFFAOYSA-N
     RDKit          3D

 24 24  0  0  0  0  0  0  0  0999 V2000
  120.1354  126.9056   86.8591 N   0  0  0  0  0  0  0  0  0  0  0  0
  120.5363  126.0965   86.1297 C   0  0  0  0  0  0  0  0  0  0  0  0
  121.0920  125.0756   85.2300 C   0  0  0  0  0  0  0  0  0  0  0  0
  120.6428  123.6745   85.6566 C   0  0  0  0  0  0  0  0  0  0  0  0
  119.5004  123.3039   84.8731 O   0  0  0  0  0  0  0  0  0  0  0  0
  121.7702  122.6419   85.4747 C   0  0  0  0  0  0  0  0  0  0  0  0
  121.8135  121.7791   86.6126 O   0  0  0  0  0  0  0  0  0  0  0  0
  122.9866  121.7189   87.3109 C   0  0  0  0  0  0  0  0  0  0  0  0
  124.2678  121.8897   86.7832 C   0  0  0  0  0  0  0  0  0  0  0  0
  125.3878  121.7989   87.6177 C   0  0  0  0  0  0  0  0  0  0  0  0
  125.2260  121.5378   88.9769 C   0  0  0  0  0  0  0  0  0  0  0  0
  126.6062  121.4274   89.9971 Cl  0  0  0  0  0  0  0  0  0  0  0  0
  123.9528  121.3661   89.5114 C   0  0  0  0  0  0  0  0  0  0  0  0
  122.8368  121.4571   88.6764 C   0  0  0  0  0  0  0  0  0  0  0  0
  120.7437  125.2698   84.2048 H   0  0  0  0  0  0  0  0  0  0  0  0
  122.1900  125.1240   85.2761 H   0  0  0  0  0  0  0  0  0  0  0  0
  120.3835  123.6910   86.7254 H   0  0  0  0  0  0  0  0  0  0  0  0
  118.7524  123.0613   85.4745 H   0  0  0  0  0  0  0  0  0  0  0  0
  121.5794  122.0461   84.5699 H   0  0  0  0  0  0  0  0  0  0  0  0
  122.7331  123.1640   85.3735 H   0  0  0  0  0  0  0  0  0  0  0  0
  124.3971  122.0959   85.7105 H   0  0  0  0  0  0  0  0  0  0  0  0
  126.3966  121.9338   87.2003 H   0  0  0  0  0  0  0  0  0  0  0  0
  123.8259  121.1602   90.5845 H   0  0  0  0  0  0  0  0  0  0  0  0
  121.8296  121.3213   89.0973 H   0  0  0  0  0  0  0  0  0  0  0  0
  1  2  3  0
  2  3  1  0
  3  4  1  0
  4  5  1  0
  4  6  1  0
  6  7  1  0
  7  8  1  0
  8  9  2  0
  9 10  1  0
 10 11  2  0
 11 12  1  0
 11 13  1  0
 13 14  2  0
 14  8  1  0
  3 15  1  0
  3 16  1  0
  4 17  1  0
  5 18  1  0
  6 19  1  0
  6 20  1  0
  9 21  1  0
 10 22  1  0
 13 23  1  0
 14 24  1  0
M  END
>  <loss>  (5) 
0.6965292096138

>  <score>  (5) 
3.708702564239502

$$$$
LCRZUPUZVGGZJD-UHFFFAOYSA-N
     RDKit          3D

 24 24  0  0  0  0  0  0  0  0999 V2000
  120.8504  123.6730   81.8033 N   0  0  0  0  0  0  0  0  0  0  0  0
  120.5383  123.2436   82.8348 C   0  0  0  0  0  0  0  0  0  0  0  0
  120.1562  122.7168   84.1515 C   0  0  0  0  0  0  0  0  0  0  0  0
  120.1374  123.8379   85.1935 C   0  0  0  0  0  0  0  0  0  0  0  0
  118.9553  123.7057   85.9957 O   0  0  0  0  0  0  0  0  0  0  0  0
  121.3703  123.7439   86.1071 C   0  0  0  0  0  0  0  0  0  0  0  0
  121.7090  122.3687   86.3301 O   0  0  0  0  0  0  0  0  0  0  0  0
  122.8359  122.0969   87.0514 C   0  0  0  0  0  0  0  0  0  0  0  0
  122.6095  121.5543   88.3197 C   0  0  0  0  0  0  0  0  0  0  0  0
  123.6806  121.2150   89.1495 C   0  0  0  0  0  0  0  0  0  0  0  0
  124.9846  121.4067   88.7015 C   0  0  0  0  0  0  0  0  0  0  0  0
  126.3091  120.9897   89.7166 Cl  0  0  0  0  0  0  0  0  0  0  0  0
  125.2215  121.9265   87.4308 C   0  0  0  0  0  0  0  0  0  0  0  0
  124.1459  122.2662   86.6029 C   0  0  0  0  0  0  0  0  0  0  0  0
  119.1542  122.2679   84.0848 H   0  0  0  0  0  0  0  0  0  0  0  0
  120.8921  121.9589   84.4582 H   0  0  0  0  0  0  0  0  0  0  0  0
  120.1479  124.8083   84.6756 H   0  0  0  0  0  0  0  0  0  0  0  0
  119.2021  123.7333   86.9541 H   0  0  0  0  0  0  0  0  0  0  0  0
  122.2185  124.2555   85.6288 H   0  0  0  0  0  0  0  0  0  0  0  0
  121.1435  124.2219   87.0715 H   0  0  0  0  0  0  0  0  0  0  0  0
  121.5784  121.3931   88.6674 H   0  0  0  0  0  0  0  0  0  0  0  0
  123.4950  120.7990   90.1508 H   0  0  0  0  0  0  0  0  0  0  0  0
  126.2537  122.0699   87.0785 H   0  0  0  0  0  0  0  0  0  0  0  0
  124.3337  122.6676   85.5961 H   0  0  0  0  0  0  0  0  0  0  0  0
  1  2  3  0
  2  3  1  0
  3  4  1  0
  4  5  1  0
  4  6  1  0
  6  7  1  0
  7  8  1  0
  8  9  2  0
  9 10  1  0
 10 11  2  0
 11 12  1  0
 11 13  1  0
 13 14  2  0
 14  8  1  0
  3 15  1  0
  3 16  1  0
  4 17  1  0
  5 18  1  0
  6 19  1  0
  6 20  1  0
  9 21  1  0
 10 22  1  0
 13 23  1  0
 14 24  1  0
M  END
>  <loss>  (6) 
0.6148483753204346

>  <score>  (6) 
3.260289430618286

$$$$
LCRZUPUZVGGZJD-UHFFFAOYSA-N
     RDKit          3D

 24 24  0  0  0  0  0  0  0  0999 V2000
  120.7125  122.9704   82.1790 N   0  0  0  0  0  0  0  0  0  0  0  0
  120.8402  123.4195   83.2417 C   0  0  0  0  0  0  0  0  0  0  0  0
  121.0307  123.9703   84.5914 C   0  0  0  0  0  0  0  0  0  0  0  0
  120.0591  123.3209   85.5840 C   0  0  0  0  0  0  0  0  0  0  0  0
  119.3627  124.3473   86.2995 O   0  0  0  0  0  0  0  0  0  0  0  0
  120.8072  122.4382   86.5946 C   0  0  0  0  0  0  0  0  0  0  0  0
  122.1656  122.2245   86.2188 O   0  0  0  0  0  0  0  0  0  0  0  0
  123.0850  121.9364   87.1865 C   0  0  0  0  0  0  0  0  0  0  0  0
  124.4105  122.1794   86.8102 C   0  0  0  0  0  0  0  0  0  0  0  0
  125.4625  121.9284   87.6941 C   0  0  0  0  0  0  0  0  0  0  0  0
  125.1879  121.4311   88.9638 C   0  0  0  0  0  0  0  0  0  0  0  0
  126.4754  121.1194   90.0602 Cl  0  0  0  0  0  0  0  0  0  0  0  0
  123.8723  121.1855   89.3510 C   0  0  0  0  0  0  0  0  0  0  0  0
  122.8199  121.4384   88.4627 C   0  0  0  0  0  0  0  0  0  0  0  0
  122.0632  123.7771   84.9178 H   0  0  0  0  0  0  0  0  0  0  0  0
  120.8358  125.0526   84.5624 H   0  0  0  0  0  0  0  0  0  0  0  0
  119.3553  122.6930   85.0179 H   0  0  0  0  0  0  0  0  0  0  0  0
  119.4640  124.1979   87.2729 H   0  0  0  0  0  0  0  0  0  0  0  0
  120.7847  122.9289   87.5789 H   0  0  0  0  0  0  0  0  0  0  0  0
  120.3064  121.4592   86.6247 H   0  0  0  0  0  0  0  0  0  0  0  0
  124.6267  122.5730   85.8060 H   0  0  0  0  0  0  0  0  0  0  0  0
  126.5011  122.1225   87.3882 H   0  0  0  0  0  0  0  0  0  0  0  0
  123.6600  120.7922   90.3561 H   0  0  0  0  0  0  0  0  0  0  0  0
  121.7821  121.2441   88.7716 H   0  0  0  0  0  0  0  0  0  0  0  0
  1  2  3  0
  2  3  1  0
  3  4  1  0
  4  5  1  0
  4  6  1  0
  6  7  1  0
  7  8  1  0
  8  9  2  0
  9 10  1  0
 10 11  2  0
 11 12  1  0
 11 13  1  0
 13 14  2  0
 14  8  1  0
  3 15  1  0
  3 16  1  0
  4 17  1  0
  5 18  1  0
  6 19  1  0
  6 20  1  0
  9 21  1  0
 10 22  1  0
 13 23  1  0
 14 24  1  0
M  END
>  <loss>  (7) 
0.6542003154754639

>  <score>  (7) 
3.454324722290039

$$$$
LCRZUPUZVGGZJD-UHFFFAOYSA-N
     RDKit          3D

 24 24  0  0  0  0  0  0  0  0999 V2000
  119.8058  126.8308   87.4063 N   0  0  0  0  0  0  0  0  0  0  0  0
  119.8982  125.6940   87.1908 C   0  0  0  0  0  0  0  0  0  0  0  0
  120.0423  124.2528   86.9387 C   0  0  0  0  0  0  0  0  0  0  0  0
  120.6351  124.0027   85.5469 C   0  0  0  0  0  0  0  0  0  0  0  0
  119.7413  123.1714   84.7981 O   0  0  0  0  0  0  0  0  0  0  0  0
  121.9970  123.2984   85.6431 C   0  0  0  0  0  0  0  0  0  0  0  0
  121.9317  122.1073   86.4237 O   0  0  0  0  0  0  0  0  0  0  0  0
  122.9307  121.8426   87.3162 C   0  0  0  0  0  0  0  0  0  0  0  0
  124.2201  122.0431   86.8115 C   0  0  0  0  0  0  0  0  0  0  0  0
  125.3441  121.8091   87.6071 C   0  0  0  0  0  0  0  0  0  0  0  0
  125.1784  121.3719   88.9171 C   0  0  0  0  0  0  0  0  0  0  0  0
  126.5553  121.0817   89.9055 Cl  0  0  0  0  0  0  0  0  0  0  0  0
  123.8997  121.1691   89.4320 C   0  0  0  0  0  0  0  0  0  0  0  0
  122.7750  121.4047   88.6320 C   0  0  0  0  0  0  0  0  0  0  0  0
  120.7086  123.8182   87.6984 H   0  0  0  0  0  0  0  0  0  0  0  0
  119.0485  123.7839   86.9893 H   0  0  0  0  0  0  0  0  0  0  0  0
  120.7729  124.9745   85.0504 H   0  0  0  0  0  0  0  0  0  0  0  0
  119.1779  122.6474   85.4212 H   0  0  0  0  0  0  0  0  0  0  0  0
  122.3347  123.0394   84.6287 H   0  0  0  0  0  0  0  0  0  0  0  0
  122.7001  123.9870   86.1346 H   0  0  0  0  0  0  0  0  0  0  0  0
  124.3503  122.3892   85.7755 H   0  0  0  0  0  0  0  0  0  0  0  0
  126.3535  121.9695   87.2004 H   0  0  0  0  0  0  0  0  0  0  0  0
  123.7736  120.8232   90.4685 H   0  0  0  0  0  0  0  0  0  0  0  0
  121.7667  121.2444   89.0415 H   0  0  0  0  0  0  0  0  0  0  0  0
  1  2  3  0
  2  3  1  0
  3  4  1  0
  4  5  1  0
  4  6  1  0
  6  7  1  0
  7  8  1  0
  8  9  2  0
  9 10  1  0
 10 11  2  0
 11 12  1  0
 11 13  1  0
 13 14  2  0
 14  8  1  0
  3 15  1  0
  3 16  1  0
  4 17  1  0
  5 18  1  0
  6 19  1  0
  6 20  1  0
  9 21  1  0
 10 22  1  0
 13 23  1  0
 14 24  1  0
M  END
>  <loss>  (8) 
0.696452796459198

>  <score>  (8) 
3.582152843475342

$$$$
LCRZUPUZVGGZJD-UHFFFAOYSA-N
     RDKit          3D

 24 24  0  0  0  0  0  0  0  0999 V2000
  119.7613  126.4444   86.0425 N   0  0  0  0  0  0  0  0  0  0  0  0
  120.4312  125.6976   85.4585 C   0  0  0  0  0  0  0  0  0  0  0  0
  121.2943  124.7743   84.7103 C   0  0  0  0  0  0  0  0  0  0  0  0
  120.8315  123.3129   84.7472 C   0  0  0  0  0  0  0  0  0  0  0  0
  119.5697  123.2010   85.4140 O   0  0  0  0  0  0  0  0  0  0  0  0
  121.8435  122.3235   85.3463 C   0  0  0  0  0  0  0  0  0  0  0  0
  121.7079  122.3284   86.7667 O   0  0  0  0  0  0  0  0  0  0  0  0
  122.8112  121.9902   87.4972 C   0  0  0  0  0  0  0  0  0  0  0  0
  122.8052  121.4992   88.8037 C   0  0  0  0  0  0  0  0  0  0  0  0
  124.0131  121.2006   89.4439 C   0  0  0  0  0  0  0  0  0  0  0  0
  125.2223  121.3973   88.7789 C   0  0  0  0  0  0  0  0  0  0  0  0
  126.7035  121.0275   89.5713 Cl  0  0  0  0  0  0  0  0  0  0  0  0
  125.2361  121.8939   87.4787 C   0  0  0  0  0  0  0  0  0  0  0  0
  124.0296  122.1924   86.8423 C   0  0  0  0  0  0  0  0  0  0  0  0
  121.3212  125.1014   83.6603 H   0  0  0  0  0  0  0  0  0  0  0  0
  122.2830  124.8054   85.1914 H   0  0  0  0  0  0  0  0  0  0  0  0
  120.7314  123.0196   83.6918 H   0  0  0  0  0  0  0  0  0  0  0  0
  119.7119  123.2136   86.3937 H   0  0  0  0  0  0  0  0  0  0  0  0
  121.6454  121.3129   84.9598 H   0  0  0  0  0  0  0  0  0  0  0  0
  122.8654  122.6207   85.0680 H   0  0  0  0  0  0  0  0  0  0  0  0
  121.8513  121.3471   89.3299 H   0  0  0  0  0  0  0  0  0  0  0  0
  124.0084  120.8105   90.4724 H   0  0  0  0  0  0  0  0  0  0  0  0
  126.1913  122.0501   86.9559 H   0  0  0  0  0  0  0  0  0  0  0  0
  124.0379  122.5901   85.8167 H   0  0  0  0  0  0  0  0  0  0  0  0
  1  2  3  0
  2  3  1  0
  3  4  1  0
  4  5  1  0
  4  6  1  0
  6  7  1  0
  7  8  1  0
  8  9  2  0
  9 10  1  0
 10 11  2  0
 11 12  1  0
 11 13  1  0
 13 14  2  0
 14  8  1  0
  3 15  1  0
  3 16  1  0
  4 17  1  0
  5 18  1  0
  6 19  1  0
  6 20  1  0
  9 21  1  0
 10 22  1  0
 13 23  1  0
 14 24  1  0
M  END
>  <loss>  (9) 
0.6714147329330444

>  <score>  (9) 
3.421555280685425

$$$$
LCRZUPUZVGGZJD-UHFFFAOYSA-N
     RDKit          3D

 24 24  0  0  0  0  0  0  0  0999 V2000
  120.8612  125.4680   82.8978 N   0  0  0  0  0  0  0  0  0  0  0  0
  120.7192  124.4189   83.3738 C   0  0  0  0  0  0  0  0  0  0  0  0
  120.5499  123.0797   83.9527 C   0  0  0  0  0  0  0  0  0  0  0  0
  119.8541  123.0697   85.3191 C   0  0  0  0  0  0  0  0  0  0  0  0
  119.3694  124.3761   85.6469 O   0  0  0  0  0  0  0  0  0  0  0  0
  120.6951  122.5048   86.4748 C   0  0  0  0  0  0  0  0  0  0  0  0
  122.0765  122.6056   86.1322 O   0  0  0  0  0  0  0  0  0  0  0  0
  122.9800  122.1748   87.0615 C   0  0  0  0  0  0  0  0  0  0  0  0
  122.6728  121.6842   88.3315 C   0  0  0  0  0  0  0  0  0  0  0  0
  123.6997  121.2843   89.1937 C   0  0  0  0  0  0  0  0  0  0  0  0
  125.0294  121.3796   88.7864 C   0  0  0  0  0  0  0  0  0  0  0  0
  126.2868  120.8855   89.8509 Cl  0  0  0  0  0  0  0  0  0  0  0  0
  125.3434  121.8750   87.5242 C   0  0  0  0  0  0  0  0  0  0  0  0
  124.3170  122.2748   86.6659 C   0  0  0  0  0  0  0  0  0  0  0  0
  119.9504  122.4757   83.2557 H   0  0  0  0  0  0  0  0  0  0  0  0
  121.5598  122.6725   84.1089 H   0  0  0  0  0  0  0  0  0  0  0  0
  119.0134  122.3695   85.2049 H   0  0  0  0  0  0  0  0  0  0  0  0
  119.3320  124.4769   86.6311 H   0  0  0  0  0  0  0  0  0  0  0  0
  120.4986  123.0813   87.3908 H   0  0  0  0  0  0  0  0  0  0  0  0
  120.4298  121.4516   86.6493 H   0  0  0  0  0  0  0  0  0  0  0  0
  121.6237  121.6121   88.6545 H   0  0  0  0  0  0  0  0  0  0  0  0
  123.4575  120.8945   90.1935 H   0  0  0  0  0  0  0  0  0  0  0  0
  126.3933  121.9512   87.2049 H   0  0  0  0  0  0  0  0  0  0  0  0
  124.5627  122.6718   85.6699 H   0  0  0  0  0  0  0  0  0  0  0  0
  1  2  3  0
  2  3  1  0
  3  4  1  0
  4  5  1  0
  4  6  1  0
  6  7  1  0
  7  8  1  0
  8  9  2  0
  9 10  1  0
 10 11  2  0
 11 12  1  0
 11 13  1  0
 13 14  2  0
 14  8  1  0
  3 15  1  0
  3 16  1  0
  4 17  1  0
  5 18  1  0
  6 19  1  0
  6 20  1  0
  9 21  1  0
 10 22  1  0
 13 23  1  0
 14 24  1  0
M  END
>  <loss>  (10) 
0.6295516490936279

>  <score>  (10) 
3.210035562515259

$$$$
LCRZUPUZVGGZJD-UHFFFAOYSA-N
     RDKit          3D

 24 24  0  0  0  0  0  0  0  0999 V2000
  121.5034  124.4859   82.3175 N   0  0  0  0  0  0  0  0  0  0  0  0
  121.0463  123.8144   83.1467 C   0  0  0  0  0  0  0  0  0  0  0  0
  120.5167  122.9451   84.2070 C   0  0  0  0  0  0  0  0  0  0  0  0
  120.2256  123.7530   85.4756 C   0  0  0  0  0  0  0  0  0  0  0  0
  118.9881  123.2926   86.0351 O   0  0  0  0  0  0  0  0  0  0  0  0
  121.3606  123.6117   86.5063 C   0  0  0  0  0  0  0  0  0  0  0  0
  121.8054  122.2546   86.5413 O   0  0  0  0  0  0  0  0  0  0  0  0
  122.9583  121.9890   87.2253 C   0  0  0  0  0  0  0  0  0  0  0  0
  124.2579  122.1844   86.7543 C   0  0  0  0  0  0  0  0  0  0  0  0
  125.3532  121.8653   87.5653 C   0  0  0  0  0  0  0  0  0  0  0  0
  125.1483  121.3518   88.8444 C   0  0  0  0  0  0  0  0  0  0  0  0
  126.4982  120.9617   89.8360 Cl  0  0  0  0  0  0  0  0  0  0  0  0
  123.8564  121.1538   89.3220 C   0  0  0  0  0  0  0  0  0  0  0  0
  122.7652  121.4729   88.5106 C   0  0  0  0  0  0  0  0  0  0  0  0
  119.5859  122.4748   83.8570 H   0  0  0  0  0  0  0  0  0  0  0  0
  121.2680  122.1767   84.4420 H   0  0  0  0  0  0  0  0  0  0  0  0
  120.1527  124.8187   85.2131 H   0  0  0  0  0  0  0  0  0  0  0  0
  119.0447  123.3136   87.0233 H   0  0  0  0  0  0  0  0  0  0  0  0
  122.1983  124.2650   86.2211 H   0  0  0  0  0  0  0  0  0  0  0  0
  120.9912  123.9024   87.5008 H   0  0  0  0  0  0  0  0  0  0  0  0
  124.4213  122.5897   85.7448 H   0  0  0  0  0  0  0  0  0  0  0  0
  126.3765  122.0199   87.1926 H   0  0  0  0  0  0  0  0  0  0  0  0
  123.6955  120.7486   90.3319 H   0  0  0  0  0  0  0  0  0  0  0  0
  121.7433  121.3167   88.8865 H   0  0  0  0  0  0  0  0  0  0  0  0
  1  2  3  0
  2  3  1  0
  3  4  1  0
  4  5  1  0
  4  6  1  0
  6  7  1  0
  7  8  1  0
  8  9  2  0
  9 10  1  0
 10 11  2  0
 11 12  1  0
 11 13  1  0
 13 14  2  0
 14  8  1  0
  3 15  1  0
  3 16  1  0
  4 17  1  0
  5 18  1  0
  6 19  1  0
  6 20  1  0
  9 21  1  0
 10 22  1  0
 13 23  1  0
 14 24  1  0
M  END
>  <loss>  (11) 
0.6484259366989136

>  <score>  (11) 
3.3030238151550293

$$$$
LCRZUPUZVGGZJD-UHFFFAOYSA-N
     RDKit          3D

 24 24  0  0  0  0  0  0  0  0999 V2000
  120.5452  125.6478   83.1574 N   0  0  0  0  0  0  0  0  0  0  0  0
  120.6251  124.5221   83.4262 C   0  0  0  0  0  0  0  0  0  0  0  0
  120.6847  123.1032   83.7958 C   0  0  0  0  0  0  0  0  0  0  0  0
  119.9099  122.8105   85.0880 C   0  0  0  0  0  0  0  0  0  0  0  0
  119.1528  123.9513   85.5069 O   0  0  0  0  0  0  0  0  0  0  0  0
  120.7774  122.2857   86.2440 C   0  0  0  0  0  0  0  0  0  0  0  0
  122.0104  122.9931   86.3455 O   0  0  0  0  0  0  0  0  0  0  0  0
  123.0348  122.4396   87.0592 C   0  0  0  0  0  0  0  0  0  0  0  0
  122.6551  121.9238   88.3031 C   0  0  0  0  0  0  0  0  0  0  0  0
  123.5960  121.3320   89.1491 C   0  0  0  0  0  0  0  0  0  0  0  0
  124.9262  121.2555   88.7491 C   0  0  0  0  0  0  0  0  0  0  0  0
  126.0925  120.5302   89.7839 Cl  0  0  0  0  0  0  0  0  0  0  0  0
  125.3170  121.7653   87.5129 C   0  0  0  0  0  0  0  0  0  0  0  0
  124.3715  122.3576   86.6670 C   0  0  0  0  0  0  0  0  0  0  0  0
  120.2523  122.5055   82.9798 H   0  0  0  0  0  0  0  0  0  0  0  0
  121.7394  122.8415   83.9665 H   0  0  0  0  0  0  0  0  0  0  0  0
  119.2239  121.9900   84.8308 H   0  0  0  0  0  0  0  0  0  0  0  0
  119.1293  123.9866   86.4960 H   0  0  0  0  0  0  0  0  0  0  0  0
  120.2221  122.4015   87.1865 H   0  0  0  0  0  0  0  0  0  0  0  0
  121.0059  121.2280   86.0464 H   0  0  0  0  0  0  0  0  0  0  0  0
  121.6031  121.9850   88.6186 H   0  0  0  0  0  0  0  0  0  0  0  0
  123.2871  120.9292   90.1250 H   0  0  0  0  0  0  0  0  0  0  0  0
  126.3700  121.7024   87.2010 H   0  0  0  0  0  0  0  0  0  0  0  0
  124.6830  122.7591   85.6914 H   0  0  0  0  0  0  0  0  0  0  0  0
  1  2  3  0
  2  3  1  0
  3  4  1  0
  4  5  1  0
  4  6  1  0
  6  7  1  0
  7  8  1  0
  8  9  2  0
  9 10  1  0
 10 11  2  0
 11 12  1  0
 11 13  1  0
 13 14  2  0
 14  8  1  0
  3 15  1  0
  3 16  1  0
  4 17  1  0
  5 18  1  0
  6 19  1  0
  6 20  1  0
  9 21  1  0
 10 22  1  0
 13 23  1  0
 14 24  1  0
M  END
>  <loss>  (12) 
0.6381378173828125

>  <score>  (12) 
3.1473705768585205

$$$$
LCRZUPUZVGGZJD-UHFFFAOYSA-N
     RDKit          3D

 24 24  0  0  0  0  0  0  0  0999 V2000
  120.1905  123.6171   92.6738 N   0  0  0  0  0  0  0  0  0  0  0  0
  120.2835  123.5791   91.5180 C   0  0  0  0  0  0  0  0  0  0  0  0
  120.3673  123.4926   90.0555 C   0  0  0  0  0  0  0  0  0  0  0  0
  119.8758  122.1375   89.5285 C   0  0  0  0  0  0  0  0  0  0  0  0
  119.7800  121.1755   90.5847 O   0  0  0  0  0  0  0  0  0  0  0  0
  120.7001  121.5735   88.3594 C   0  0  0  0  0  0  0  0  0  0  0  0
  121.9401  121.0265   88.8000 O   0  0  0  0  0  0  0  0  0  0  0  0
  123.0943  121.4240   88.1875 C   0  0  0  0  0  0  0  0  0  0  0  0
  124.2613  121.0400   88.8568 C   0  0  0  0  0  0  0  0  0  0  0  0
  125.5191  121.3809   88.3538 C   0  0  0  0  0  0  0  0  0  0  0  0
  125.6111  122.1113   87.1735 C   0  0  0  0  0  0  0  0  0  0  0  0
  127.1547  122.5373   86.5466 Cl  0  0  0  0  0  0  0  0  0  0  0  0
  124.4565  122.4997   86.4975 C   0  0  0  0  0  0  0  0  0  0  0  0
  123.1972  122.1562   87.0040 C   0  0  0  0  0  0  0  0  0  0  0  0
  119.7486  124.2894   89.6170 H   0  0  0  0  0  0  0  0  0  0  0  0
  121.4236  123.6046   89.7694 H   0  0  0  0  0  0  0  0  0  0  0  0
  118.8733  122.3353   89.1213 H   0  0  0  0  0  0  0  0  0  0  0  0
  119.8261  121.6389   91.4583 H   0  0  0  0  0  0  0  0  0  0  0  0
  120.1186  120.7826   87.8630 H   0  0  0  0  0  0  0  0  0  0  0  0
  120.9183  122.3990   87.6660 H   0  0  0  0  0  0  0  0  0  0  0  0
  124.1875  120.4627   89.7902 H   0  0  0  0  0  0  0  0  0  0  0  0
  126.4306  121.0739   88.8875 H   0  0  0  0  0  0  0  0  0  0  0  0
  124.5344  123.0771   85.5644 H   0  0  0  0  0  0  0  0  0  0  0  0
  122.2873  122.4640   86.4680 H   0  0  0  0  0  0  0  0  0  0  0  0
  1  2  3  0
  2  3  1  0
  3  4  1  0
  4  5  1  0
  4  6  1  0
  6  7  1  0
  7  8  1  0
  8  9  2  0
  9 10  1  0
 10 11  2  0
 11 12  1  0
 11 13  1  0
 13 14  2  0
 14  8  1  0
  3 15  1  0
  3 16  1  0
  4 17  1  0
  5 18  1  0
  6 19  1  0
  6 20  1  0
  9 21  1  0
 10 22  1  0
 13 23  1  0
 14 24  1  0
M  END
>  <loss>  (13) 
0.7828357219696045

>  <score>  (13) 
3.316394805908203

$$$$
LCRZUPUZVGGZJD-UHFFFAOYSA-N
     RDKit          3D

 24 24  0  0  0  0  0  0  0  0999 V2000
  120.7941  123.9708   92.7165 N   0  0  0  0  0  0  0  0  0  0  0  0
  120.4853  123.3386   91.7933 C   0  0  0  0  0  0  0  0  0  0  0  0
  120.0832  122.5616   90.6135 C   0  0  0  0  0  0  0  0  0  0  0  0
  120.3566  121.0573   90.7294 C   0  0  0  0  0  0  0  0  0  0  0  0
  120.4857  120.6732   92.1024 O   0  0  0  0  0  0  0  0  0  0  0  0
  121.5569  120.5482   89.9157 C   0  0  0  0  0  0  0  0  0  0  0  0
  121.7250  121.3825   88.7705 O   0  0  0  0  0  0  0  0  0  0  0  0
  122.9973  121.5434   88.3004 C   0  0  0  0  0  0  0  0  0  0  0  0
  124.1609  121.0941   88.9265 C   0  0  0  0  0  0  0  0  0  0  0  0
  125.4082  121.3354   88.3400 C   0  0  0  0  0  0  0  0  0  0  0  0
  125.4892  122.0280   87.1330 C   0  0  0  0  0  0  0  0  0  0  0  0
  127.0255  122.3205   86.4170 Cl  0  0  0  0  0  0  0  0  0  0  0  0
  124.3334  122.4856   86.5069 C   0  0  0  0  0  0  0  0  0  0  0  0
  123.0898  122.2448   87.0948 C   0  0  0  0  0  0  0  0  0  0  0  0
  119.0039  122.7052   90.4571 H   0  0  0  0  0  0  0  0  0  0  0  0
  120.6881  122.9292   89.7714 H   0  0  0  0  0  0  0  0  0  0  0  0
  119.4771  120.5730   90.2799 H   0  0  0  0  0  0  0  0  0  0  0  0
  120.2302  121.4333   92.6830 H   0  0  0  0  0  0  0  0  0  0  0  0
  122.4651  120.5839   90.5353 H   0  0  0  0  0  0  0  0  0  0  0  0
  121.3791  119.5101   89.5982 H   0  0  0  0  0  0  0  0  0  0  0  0
  124.0975  120.5505   89.8807 H   0  0  0  0  0  0  0  0  0  0  0  0
  126.3252  120.9784   88.8316 H   0  0  0  0  0  0  0  0  0  0  0  0
  124.3991  123.0335   85.5553 H   0  0  0  0  0  0  0  0  0  0  0  0
  122.1752  122.6101   86.6049 H   0  0  0  0  0  0  0  0  0  0  0  0
  1  2  3  0
  2  3  1  0
  3  4  1  0
  4  5  1  0
  4  6  1  0
  6  7  1  0
  7  8  1  0
  8  9  2  0
  9 10  1  0
 10 11  2  0
 11 12  1  0
 11 13  1  0
 13 14  2  0
 14  8  1  0
  3 15  1  0
  3 16  1  0
  4 17  1  0
  5 18  1  0
  6 19  1  0
  6 20  1  0
  9 21  1  0
 10 22  1  0
 13 23  1  0
 14 24  1  0
M  END
>  <loss>  (14) 
0.697200357913971

>  <score>  (14) 
2.807119369506836

$$$$
LCRZUPUZVGGZJD-UHFFFAOYSA-N
     RDKit          3D

 24 24  0  0  0  0  0  0  0  0999 V2000
  120.3012  124.8524   92.2563 N   0  0  0  0  0  0  0  0  0  0  0  0
  120.3269  124.1007   91.3730 C   0  0  0  0  0  0  0  0  0  0  0  0
  120.3729  123.1343   90.2680 C   0  0  0  0  0  0  0  0  0  0  0  0
  120.5102  121.7083   90.8070 C   0  0  0  0  0  0  0  0  0  0  0  0
  119.3166  120.9767   90.4930 O   0  0  0  0  0  0  0  0  0  0  0  0
  121.7110  121.0010   90.1579 C   0  0  0  0  0  0  0  0  0  0  0  0
  121.7079  121.2331   88.7430 O   0  0  0  0  0  0  0  0  0  0  0  0
  122.8912  121.5617   88.1466 C   0  0  0  0  0  0  0  0  0  0  0  0
  124.0324  121.0685   88.7859 C   0  0  0  0  0  0  0  0  0  0  0  0
  125.3039  121.3196   88.2648 C   0  0  0  0  0  0  0  0  0  0  0  0
  125.4321  122.0558   87.0903 C   0  0  0  0  0  0  0  0  0  0  0  0
  126.9941  122.3678   86.4412 Cl  0  0  0  0  0  0  0  0  0  0  0  0
  124.3000  122.5335   86.4335 C   0  0  0  0  0  0  0  0  0  0  0  0
  123.0283  122.2808   86.9592 C   0  0  0  0  0  0  0  0  0  0  0  0
  119.4459  123.2115   89.6809 H   0  0  0  0  0  0  0  0  0  0  0  0
  121.2434  123.3601   89.6345 H   0  0  0  0  0  0  0  0  0  0  0  0
  120.6642  121.7502   91.8954 H   0  0  0  0  0  0  0  0  0  0  0  0
  118.8679  120.7017   91.3316 H   0  0  0  0  0  0  0  0  0  0  0  0
  122.6430  121.3943   90.5899 H   0  0  0  0  0  0  0  0  0  0  0  0
  121.6402  119.9198   90.3476 H   0  0  0  0  0  0  0  0  0  0  0  0
  123.9282  120.4774   89.7077 H   0  0  0  0  0  0  0  0  0  0  0  0
  126.1982  120.9380   88.7792 H   0  0  0  0  0  0  0  0  0  0  0  0
  124.4061  123.1090   85.5021 H   0  0  0  0  0  0  0  0  0  0  0  0
  122.1345  122.6499   86.4349 H   0  0  0  0  0  0  0  0  0  0  0  0
  1  2  3  0
  2  3  1  0
  3  4  1  0
  4  5  1  0
  4  6  1  0
  6  7  1  0
  7  8  1  0
  8  9  2  0
  9 10  1  0
 10 11  2  0
 11 12  1  0
 11 13  1  0
 13 14  2  0
 14  8  1  0
  3 15  1  0
  3 16  1  0
  4 17  1  0
  5 18  1  0
  6 19  1  0
  6 20  1  0
  9 21  1  0
 10 22  1  0
 13 23  1  0
 14 24  1  0
M  END
>  <loss>  (15) 
0.7605246901512146

>  <score>  (15) 
2.900938034057617

$$$$
LCRZUPUZVGGZJD-UHFFFAOYSA-N
     RDKit          3D

 24 24  0  0  0  0  0  0  0  0999 V2000
  118.6223  118.2000   89.4993 N   0  0  0  0  0  0  0  0  0  0  0  0
  118.8008  119.3398   89.3714 C   0  0  0  0  0  0  0  0  0  0  0  0
  119.0440  120.7771   89.1806 C   0  0  0  0  0  0  0  0  0  0  0  0
  120.1211  121.2780   90.1501 C   0  0  0  0  0  0  0  0  0  0  0  0
  119.4886  121.8400   91.3054 O   0  0  0  0  0  0  0  0  0  0  0  0
  120.9972  122.3570   89.4956 C   0  0  0  0  0  0  0  0  0  0  0  0
  121.5041  121.9420   88.2295 O   0  0  0  0  0  0  0  0  0  0  0  0
  122.8547  121.8392   88.0562 C   0  0  0  0  0  0  0  0  0  0  0  0
  123.3116  122.2998   86.8166 C   0  0  0  0  0  0  0  0  0  0  0  0
  124.6696  122.2545   86.4929 C   0  0  0  0  0  0  0  0  0  0  0  0
  125.5781  121.7455   87.4151 C   0  0  0  0  0  0  0  0  0  0  0  0
  127.2522  121.6859   87.0271 Cl  0  0  0  0  0  0  0  0  0  0  0  0
  125.1361  121.2842   88.6532 C   0  0  0  0  0  0  0  0  0  0  0  0
  123.7741  121.3311   88.9748 C   0  0  0  0  0  0  0  0  0  0  0  0
  119.3783  120.9527   88.1474 H   0  0  0  0  0  0  0  0  0  0  0  0
  118.1095  121.3231   89.3773 H   0  0  0  0  0  0  0  0  0  0  0  0
  120.7580  120.4257   90.4293 H   0  0  0  0  0  0  0  0  0  0  0  0
  119.9058  121.4694   92.1231 H   0  0  0  0  0  0  0  0  0  0  0  0
  120.3943  123.2663   89.3554 H   0  0  0  0  0  0  0  0  0  0  0  0
  121.8548  122.5446   90.1585 H   0  0  0  0  0  0  0  0  0  0  0  0
  122.5925  122.7026   86.0881 H   0  0  0  0  0  0  0  0  0  0  0  0
  125.0183  122.6189   85.5153 H   0  0  0  0  0  0  0  0  0  0  0  0
  125.8582  120.8824   89.3792 H   0  0  0  0  0  0  0  0  0  0  0  0
  123.4282  120.9668   89.9534 H   0  0  0  0  0  0  0  0  0  0  0  0
  1  2  3  0
  2  3  1  0
  3  4  1  0
  4  5  1  0
  4  6  1  0
  6  7  1  0
  7  8  1  0
  8  9  2  0
  9 10  1  0
 10 11  2  0
 11 12  1  0
 11 13  1  0
 13 14  2  0
 14  8  1  0
  3 15  1  0
  3 16  1  0
  4 17  1  0
  5 18  1  0
  6 19  1  0
  6 20  1  0
  9 21  1  0
 10 22  1  0
 13 23  1  0
 14 24  1  0
M  END
>  <loss>  (16) 
0.864529550075531

>  <score>  (16) 
3.4084577560424805

$$$$
LCRZUPUZVGGZJD-UHFFFAOYSA-N
     RDKit          3D

 24 24  0  0  0  0  0  0  0  0999 V2000
  121.3648  124.2257   93.0538 N   0  0  0  0  0  0  0  0  0  0  0  0
  120.7833  123.6242   92.2501 C   0  0  0  0  0  0  0  0  0  0  0  0
  120.0670  122.8505   91.2276 C   0  0  0  0  0  0  0  0  0  0  0  0
  120.6746  121.4525   91.0886 C   0  0  0  0  0  0  0  0  0  0  0  0
  119.6935  120.4797   91.4754 O   0  0  0  0  0  0  0  0  0  0  0  0
  121.0882  121.1881   89.6317 C   0  0  0  0  0  0  0  0  0  0  0  0
  122.3593  120.5257   89.5975 O   0  0  0  0  0  0  0  0  0  0  0  0
  123.3341  121.0541   88.8009 C   0  0  0  0  0  0  0  0  0  0  0  0
  122.8796  121.6158   87.6041 C   0  0  0  0  0  0  0  0  0  0  0  0
  123.7761  122.2058   86.7100 C   0  0  0  0  0  0  0  0  0  0  0  0
  125.1320  122.2462   87.0226 C   0  0  0  0  0  0  0  0  0  0  0  0
  126.2421  122.9727   85.9277 Cl  0  0  0  0  0  0  0  0  0  0  0  0
  125.5926  121.7088   88.2226 C   0  0  0  0  0  0  0  0  0  0  0  0
  124.6917  121.1177   89.1151 C   0  0  0  0  0  0  0  0  0  0  0  0
  119.0100  122.7585   91.5180 H   0  0  0  0  0  0  0  0  0  0  0  0
  120.1517  123.3723   90.2630 H   0  0  0  0  0  0  0  0  0  0  0  0
  121.5640  121.3830   91.7321 H   0  0  0  0  0  0  0  0  0  0  0  0
  119.6465  120.4331   92.4631 H   0  0  0  0  0  0  0  0  0  0  0  0
  120.3324  120.5519   89.1478 H   0  0  0  0  0  0  0  0  0  0  0  0
  121.1649  122.1466   89.0975 H   0  0  0  0  0  0  0  0  0  0  0  0
  121.8063  121.5929   87.3643 H   0  0  0  0  0  0  0  0  0  0  0  0
  123.4129  122.6358   85.7650 H   0  0  0  0  0  0  0  0  0  0  0  0
  126.6641  121.7491   88.4682 H   0  0  0  0  0  0  0  0  0  0  0  0
  125.0548  120.7021   90.0667 H   0  0  0  0  0  0  0  0  0  0  0  0
  1  2  3  0
  2  3  1  0
  3  4  1  0
  4  5  1  0
  4  6  1  0
  6  7  1  0
  7  8  1  0
  8  9  2  0
  9 10  1  0
 10 11  2  0
 11 12  1  0
 11 13  1  0
 13 14  2  0
 14  8  1  0
  3 15  1  0
  3 16  1  0
  4 17  1  0
  5 18  1  0
  6 19  1  0
  6 20  1  0
  9 21  1  0
 10 22  1  0
 13 23  1  0
 14 24  1  0
M  END
>  <loss>  (17) 
0.7265588641166687

>  <score>  (17) 
2.3390088081359863

$$$$
LCRZUPUZVGGZJD-UHFFFAOYSA-N
     RDKit          3D

 24 24  0  0  0  0  0  0  0  0999 V2000
  119.1635  124.1009   91.6958 N   0  0  0  0  0  0  0  0  0  0  0  0
  120.1428  123.4791   91.6850 C   0  0  0  0  0  0  0  0  0  0  0  0
  121.3706  122.6731   91.6803 C   0  0  0  0  0  0  0  0  0  0  0  0
  121.0400  121.1920   91.4804 C   0  0  0  0  0  0  0  0  0  0  0  0
  119.6956  121.0786   90.9925 O   0  0  0  0  0  0  0  0  0  0  0  0
  121.9952  120.5613   90.4542 C   0  0  0  0  0  0  0  0  0  0  0  0
  121.7896  121.1558   89.1658 O   0  0  0  0  0  0  0  0  0  0  0  0
  122.8919  121.4931   88.4342 C   0  0  0  0  0  0  0  0  0  0  0  0
  124.1044  121.0106   88.9355 C   0  0  0  0  0  0  0  0  0  0  0  0
  125.3037  121.2711   88.2683 C   0  0  0  0  0  0  0  0  0  0  0  0
  125.2868  122.0060   87.0862 C   0  0  0  0  0  0  0  0  0  0  0  0
  126.7591  122.3295   86.2577 Cl  0  0  0  0  0  0  0  0  0  0  0  0
  124.0815  122.4730   86.5664 C   0  0  0  0  0  0  0  0  0  0  0  0
  122.8824  122.2109   87.2382 C   0  0  0  0  0  0  0  0  0  0  0  0
  122.0227  123.0119   90.8618 H   0  0  0  0  0  0  0  0  0  0  0  0
  121.8802  122.7961   92.6474 H   0  0  0  0  0  0  0  0  0  0  0  0
  121.1491  120.6679   92.4413 H   0  0  0  0  0  0  0  0  0  0  0  0
  119.0700  121.0258   91.7580 H   0  0  0  0  0  0  0  0  0  0  0  0
  123.0348  120.7299   90.7719 H   0  0  0  0  0  0  0  0  0  0  0  0
  121.7963  119.4813   90.3904 H   0  0  0  0  0  0  0  0  0  0  0  0
  124.1142  120.4204   89.8637 H   0  0  0  0  0  0  0  0  0  0  0  0
  126.2554  120.8979   88.6745 H   0  0  0  0  0  0  0  0  0  0  0  0
  124.0725  123.0475   85.6284 H   0  0  0  0  0  0  0  0  0  0  0  0
  121.9302  122.5716   86.8222 H   0  0  0  0  0  0  0  0  0  0  0  0
  1  2  3  0
  2  3  1  0
  3  4  1  0
  4  5  1  0
  4  6  1  0
  6  7  1  0
  7  8  1  0
  8  9  2  0
  9 10  1  0
 10 11  2  0
 11 12  1  0
 11 13  1  0
 13 14  2  0
 14  8  1  0
  3 15  1  0
  3 16  1  0
  4 17  1  0
  5 18  1  0
  6 19  1  0
  6 20  1  0
  9 21  1  0
 10 22  1  0
 13 23  1  0
 14 24  1  0
M  END
>  <loss>  (18) 
0.6909046173095703

>  <score>  (18) 
1.0895063877105713

$$$$
LCRZUPUZVGGZJD-UHFFFAOYSA-N
     RDKit          3D

 24 24  0  0  0  0  0  0  0  0999 V2000
  120.5371  124.3611   92.6140 N   0  0  0  0  0  0  0  0  0  0  0  0
  120.3807  123.6847   91.6837 C   0  0  0  0  0  0  0  0  0  0  0  0
  120.1755  122.8517   90.4915 C   0  0  0  0  0  0  0  0  0  0  0  0
  120.3253  121.3467   90.7438 C   0  0  0  0  0  0  0  0  0  0  0  0
  120.3897  121.0754   92.1480 O   0  0  0  0  0  0  0  0  0  0  0  0
  121.5009  120.6772   90.0145 C   0  0  0  0  0  0  0  0  0  0  0  0
  121.6652  121.2960   88.7394 O   0  0  0  0  0  0  0  0  0  0  0  0
  122.9445  121.4722   88.2946 C   0  0  0  0  0  0  0  0  0  0  0  0
  124.0982  120.9976   88.9206 C   0  0  0  0  0  0  0  0  0  0  0  0
  125.3543  121.2586   88.3621 C   0  0  0  0  0  0  0  0  0  0  0  0
  125.4541  121.9958   87.1832 C   0  0  0  0  0  0  0  0  0  0  0  0
  127.0013  122.3123   86.5015 Cl  0  0  0  0  0  0  0  0  0  0  0  0
  124.3083  122.4787   86.5578 C   0  0  0  0  0  0  0  0  0  0  0  0
  123.0559  122.2182   87.1177 C   0  0  0  0  0  0  0  0  0  0  0  0
  119.1606  123.0384   90.1106 H   0  0  0  0  0  0  0  0  0  0  0  0
  120.9587  123.1314   89.7715 H   0  0  0  0  0  0  0  0  0  0  0  0
  119.4214  120.8943   90.3100 H   0  0  0  0  0  0  0  0  0  0  0  0
  120.1931  121.9037   92.6534 H   0  0  0  0  0  0  0  0  0  0  0  0
  122.4204  120.7996   90.6058 H   0  0  0  0  0  0  0  0  0  0  0  0
  121.2972  119.6040   89.8850 H   0  0  0  0  0  0  0  0  0  0  0  0
  124.0200  120.4187   89.8527 H   0  0  0  0  0  0  0  0  0  0  0  0
  126.2635  120.8818   88.8535 H   0  0  0  0  0  0  0  0  0  0  0  0
  124.3889  123.0618   85.6285 H   0  0  0  0  0  0  0  0  0  0  0  0
  122.1491  122.6032   86.6283 H   0  0  0  0  0  0  0  0  0  0  0  0
  1  2  3  0
  2  3  1  0
  3  4  1  0
  4  5  1  0
  4  6  1  0
  6  7  1  0
  7  8  1  0
  8  9  2  0
  9 10  1  0
 10 11  2  0
 11 12  1  0
 11 13  1  0
 13 14  2  0
 14  8  1  0
  3 15  1  0
  3 16  1  0
  4 17  1  0
  5 18  1  0
  6 19  1  0
  6 20  1  0
  9 21  1  0
 10 22  1  0
 13 23  1  0
 14 24  1  0
M  END
>  <loss>  (19) 
0.6982129812240601

>  <score>  (19) 
-0.008992195129394531

$$$$
LCRZUPUZVGGZJD-UHFFFAOYSA-N
     RDKit          3D

 24 24  0  0  0  0  0  0  0  0999 V2000
  119.3515  121.1050   92.6217 N   0  0  0  0  0  0  0  0  0  0  0  0
  120.0623  121.8358   92.0678 C   0  0  0  0  0  0  0  0  0  0  0  0
  120.9273  122.7628   91.3290 C   0  0  0  0  0  0  0  0  0  0  0  0
  120.5817  122.8074   89.8343 C   0  0  0  0  0  0  0  0  0  0  0  0
  119.2515  123.2943   89.6251 O   0  0  0  0  0  0  0  0  0  0  0  0
  120.7906  121.4761   89.0937 C   0  0  0  0  0  0  0  0  0  0  0  0
  122.0720  120.9141   89.3642 O   0  0  0  0  0  0  0  0  0  0  0  0
  123.1352  121.2874   88.5926 C   0  0  0  0  0  0  0  0  0  0  0  0
  124.3830  121.0218   89.1669 C   0  0  0  0  0  0  0  0  0  0  0  0
  125.5634  121.3545   88.4981 C   0  0  0  0  0  0  0  0  0  0  0  0
  125.4961  121.9574   87.2462 C   0  0  0  0  0  0  0  0  0  0  0  0
  126.9433  122.3723   86.4152 Cl  0  0  0  0  0  0  0  0  0  0  0  0
  124.2598  122.2271   86.6634 C   0  0  0  0  0  0  0  0  0  0  0  0
  123.0784  121.8922   87.3362 C   0  0  0  0  0  0  0  0  0  0  0  0
  120.8083  123.7717   91.7509 H   0  0  0  0  0  0  0  0  0  0  0  0
  121.9644  122.4093   91.4266 H   0  0  0  0  0  0  0  0  0  0  0  0
  121.3029  123.5120   89.3946 H   0  0  0  0  0  0  0  0  0  0  0  0
  118.8169  123.4533   90.5003 H   0  0  0  0  0  0  0  0  0  0  0  0
  120.0152  120.7649   89.4147 H   0  0  0  0  0  0  0  0  0  0  0  0
  120.7251  121.6725   88.0134 H   0  0  0  0  0  0  0  0  0  0  0  0
  124.4352  120.5453   90.1570 H   0  0  0  0  0  0  0  0  0  0  0  0
  126.5395  121.1412   88.9582 H   0  0  0  0  0  0  0  0  0  0  0  0
  124.2116  122.7039   85.6733 H   0  0  0  0  0  0  0  0  0  0  0  0
  122.1037  122.1061   86.8735 H   0  0  0  0  0  0  0  0  0  0  0  0
  1  2  3  0
  2  3  1  0
  3  4  1  0
  4  5  1  0
  4  6  1  0
  6  7  1  0
  7  8  1  0
  8  9  2  0
  9 10  1  0
 10 11  2  0
 11 12  1  0
 11 13  1  0
 13 14  2  0
 14  8  1  0
  3 15  1  0
  3 16  1  0
  4 17  1  0
  5 18  1  0
  6 19  1  0
  6 20  1  0
  9 21  1  0
 10 22  1  0
 13 23  1  0
 14 24  1  0
M  END
>  <loss>  (20) 
0.7655782699584961

>  <score>  (20) 
-1.611145257949829

$$$$
LCRZUPUZVGGZJD-UHFFFAOYSA-N
     RDKit          3D

 24 24  0  0  0  0  0  0  0  0999 V2000
  118.5296  118.7217   89.0817 N   0  0  0  0  0  0  0  0  0  0  0  0
  118.7725  119.7480   89.5665 C   0  0  0  0  0  0  0  0  0  0  0  0
  119.0863  121.0606   90.1496 C   0  0  0  0  0  0  0  0  0  0  0  0
  120.4636  121.0392   90.8231 C   0  0  0  0  0  0  0  0  0  0  0  0
  120.3067  121.3030   92.2218 O   0  0  0  0  0  0  0  0  0  0  0  0
  121.3907  122.1069   90.2225 C   0  0  0  0  0  0  0  0  0  0  0  0
  121.6113  121.9040   88.8288 O   0  0  0  0  0  0  0  0  0  0  0  0
  122.8926  121.8090   88.3661 C   0  0  0  0  0  0  0  0  0  0  0  0
  123.0739  122.3058   87.0708 C   0  0  0  0  0  0  0  0  0  0  0  0
  124.3304  122.2727   86.4614 C   0  0  0  0  0  0  0  0  0  0  0  0
  125.4138  121.7395   87.1517 C   0  0  0  0  0  0  0  0  0  0  0  0
  126.9651  121.6946   86.4112 Cl  0  0  0  0  0  0  0  0  0  0  0  0
  125.2467  121.2421   88.4424 C   0  0  0  0  0  0  0  0  0  0  0  0
  123.9860  121.2770   89.0507 C   0  0  0  0  0  0  0  0  0  0  0  0
  119.0856  121.8191   89.3529 H   0  0  0  0  0  0  0  0  0  0  0  0
  118.3260  121.3020   90.9070 H   0  0  0  0  0  0  0  0  0  0  0  0
  120.9123  120.0481   90.6604 H   0  0  0  0  0  0  0  0  0  0  0  0
  120.7367  120.5802   92.7442 H   0  0  0  0  0  0  0  0  0  0  0  0
  120.9333  123.0965   90.3687 H   0  0  0  0  0  0  0  0  0  0  0  0
  122.3628  122.0367   90.7327 H   0  0  0  0  0  0  0  0  0  0  0  0
  122.2166  122.7277   86.5258 H   0  0  0  0  0  0  0  0  0  0  0  0
  124.4621  122.6656   85.4424 H   0  0  0  0  0  0  0  0  0  0  0  0
  126.1064  120.8213   88.9843 H   0  0  0  0  0  0  0  0  0  0  0  0
  123.8572  120.8842   90.0700 H   0  0  0  0  0  0  0  0  0  0  0  0
  1  2  3  0
  2  3  1  0
  3  4  1  0
  4  5  1  0
  4  6  1  0
  6  7  1  0
  7  8  1  0
  8  9  2  0
  9 10  1  0
 10 11  2  0
 11 12  1  0
 11 13  1  0
 13 14  2  0
 14  8  1  0
  3 15  1  0
  3 16  1  0
  4 17  1  0
  5 18  1  0
  6 19  1  0
  6 20  1  0
  9 21  1  0
 10 22  1  0
 13 23  1  0
 14 24  1  0
M  END
>  <loss>  (21) 
0.8025069236755371

>  <score>  (21) 
-1.699695348739624

$$$$
LCRZUPUZVGGZJD-UHFFFAOYSA-N
     RDKit          3D

 24 24  0  0  0  0  0  0  0  0999 V2000
  118.1364  120.0016   90.0967 N   0  0  0  0  0  0  0  0  0  0  0  0
  119.2009  119.9288   90.5522 C   0  0  0  0  0  0  0  0  0  0  0  0
  120.5430  119.8853   91.1442 C   0  0  0  0  0  0  0  0  0  0  0  0
  121.1233  121.2893   91.3621 C   0  0  0  0  0  0  0  0  0  0  0  0
  120.3460  122.0290   92.3101 O   0  0  0  0  0  0  0  0  0  0  0  0
  121.3177  122.1038   90.0725 C   0  0  0  0  0  0  0  0  0  0  0  0
  121.6919  121.2765   88.9740 O   0  0  0  0  0  0  0  0  0  0  0  0
  122.8517  121.5475   88.3056 C   0  0  0  0  0  0  0  0  0  0  0  0
  124.0085  121.1197   88.9660 C   0  0  0  0  0  0  0  0  0  0  0  0
  125.2710  121.3334   88.4076 C   0  0  0  0  0  0  0  0  0  0  0  0
  125.3780  121.9798   87.1804 C   0  0  0  0  0  0  0  0  0  0  0  0
  126.9276  122.2490   86.4852 Cl  0  0  0  0  0  0  0  0  0  0  0  0
  124.2337  122.4106   86.5128 C   0  0  0  0  0  0  0  0  0  0  0  0
  122.9696  122.1946   87.0749 C   0  0  0  0  0  0  0  0  0  0  0  0
  120.4862  119.3703   92.1145 H   0  0  0  0  0  0  0  0  0  0  0  0
  121.2039  119.3499   90.4465 H   0  0  0  0  0  0  0  0  0  0  0  0
  122.1324  121.1223   91.7668 H   0  0  0  0  0  0  0  0  0  0  0  0
  120.6145  121.7735   93.2281 H   0  0  0  0  0  0  0  0  0  0  0  0
  120.3744  122.6142   89.8284 H   0  0  0  0  0  0  0  0  0  0  0  0
  122.1270  122.8286   90.2452 H   0  0  0  0  0  0  0  0  0  0  0  0
  123.9229  120.6089   89.9364 H   0  0  0  0  0  0  0  0  0  0  0  0
  126.1744  120.9929   88.9347 H   0  0  0  0  0  0  0  0  0  0  0  0
  124.3234  122.9212   85.5426 H   0  0  0  0  0  0  0  0  0  0  0  0
  122.0678  122.5357   86.5453 H   0  0  0  0  0  0  0  0  0  0  0  0
  1  2  3  0
  2  3  1  0
  3  4  1  0
  4  5  1  0
  4  6  1  0
  6  7  1  0
  7  8  1  0
  8  9  2  0
  9 10  1  0
 10 11  2  0
 11 12  1  0
 11 13  1  0
 13 14  2  0
 14  8  1  0
  3 15  1  0
  3 16  1  0
  4 17  1  0
  5 18  1  0
  6 19  1  0
  6 20  1  0
  9 21  1  0
 10 22  1  0
 13 23  1  0
 14 24  1  0
M  END
>  <loss>  (22) 
0.7441893219947815

>  <score>  (22) 
-7.626662254333496

$$$$
LCRZUPUZVGGZJD-UHFFFAOYSA-N
     RDKit          3D

 24 24  0  0  0  0  0  0  0  0999 V2000
  117.9576  119.6531   89.5372 N   0  0  0  0  0  0  0  0  0  0  0  0
  118.9313  119.9542   90.0927 C   0  0  0  0  0  0  0  0  0  0  0  0
  120.1918  120.3269   90.7506 C   0  0  0  0  0  0  0  0  0  0  0  0
  120.3007  121.8484   90.8916 C   0  0  0  0  0  0  0  0  0  0  0  0
  120.8729  122.1476   92.1720 O   0  0  0  0  0  0  0  0  0  0  0  0
  121.1603  122.4581   89.7692 C   0  0  0  0  0  0  0  0  0  0  0  0
  121.6283  121.4175   88.9095 O   0  0  0  0  0  0  0  0  0  0  0  0
  122.8277  121.6114   88.2840 C   0  0  0  0  0  0  0  0  0  0  0  0
  123.0199  122.2293   87.0469 C   0  0  0  0  0  0  0  0  0  0  0  0
  124.3105  122.3593   86.5210 C   0  0  0  0  0  0  0  0  0  0  0  0
  125.4060  121.8722   87.2314 C   0  0  0  0  0  0  0  0  0  0  0  0
  126.9892  122.0350   86.5797 Cl  0  0  0  0  0  0  0  0  0  0  0  0
  125.2236  121.2550   88.4651 C   0  0  0  0  0  0  0  0  0  0  0  0
  123.9347  121.1264   88.9876 C   0  0  0  0  0  0  0  0  0  0  0  0
  120.2267  119.8683   91.7498 H   0  0  0  0  0  0  0  0  0  0  0  0
  121.0306  119.9681   90.1361 H   0  0  0  0  0  0  0  0  0  0  0  0
  119.2960  122.2888   90.8103 H   0  0  0  0  0  0  0  0  0  0  0  0
  120.2661  121.8303   92.8870 H   0  0  0  0  0  0  0  0  0  0  0  0
  120.5543  123.1690   89.1883 H   0  0  0  0  0  0  0  0  0  0  0  0
  122.0199  122.9840   90.2102 H   0  0  0  0  0  0  0  0  0  0  0  0
  122.1562  122.6143   86.4850 H   0  0  0  0  0  0  0  0  0  0  0  0
  124.4602  122.8464   85.5461 H   0  0  0  0  0  0  0  0  0  0  0  0
  126.0889  120.8710   89.0253 H   0  0  0  0  0  0  0  0  0  0  0  0
  123.7888  120.6386   89.9626 H   0  0  0  0  0  0  0  0  0  0  0  0
  1  2  3  0
  2  3  1  0
  3  4  1  0
  4  5  1  0
  4  6  1  0
  6  7  1  0
  7  8  1  0
  8  9  2  0
  9 10  1  0
 10 11  2  0
 11 12  1  0
 11 13  1  0
 13 14  2  0
 14  8  1  0
  3 15  1  0
  3 16  1  0
  4 17  1  0
  5 18  1  0
  6 19  1  0
  6 20  1  0
  9 21  1  0
 10 22  1  0
 13 23  1  0
 14 24  1  0
M  END
>  <loss>  (23) 
0.7962648272514343

>  <score>  (23) 
-9.85071849822998

$$$$
LCRZUPUZVGGZJD-UHFFFAOYSA-N
     RDKit          3D

 24 24  0  0  0  0  0  0  0  0999 V2000
  120.0358  117.5979   90.5707 N   0  0  0  0  0  0  0  0  0  0  0  0
  120.3523  118.6097   91.0435 C   0  0  0  0  0  0  0  0  0  0  0  0
  120.8004  119.8868   91.6167 C   0  0  0  0  0  0  0  0  0  0  0  0
  120.1546  121.0666   90.8834 C   0  0  0  0  0  0  0  0  0  0  0  0
  120.0877  122.1811   91.7832 O   0  0  0  0  0  0  0  0  0  0  0  0
  120.9496  121.4488   89.6215 C   0  0  0  0  0  0  0  0  0  0  0  0
  122.3297  121.1343   89.8150 O   0  0  0  0  0  0  0  0  0  0  0  0
  123.1963  121.4666   88.8119 C   0  0  0  0  0  0  0  0  0  0  0  0
  122.8513  122.0107   87.5734 C   0  0  0  0  0  0  0  0  0  0  0  0
  123.8469  122.3021   86.6336 C   0  0  0  0  0  0  0  0  0  0  0  0
  125.1843  122.0495   86.9327 C   0  0  0  0  0  0  0  0  0  0  0  0
  126.4028  122.4097   85.7738 Cl  0  0  0  0  0  0  0  0  0  0  0  0
  125.5371  121.5074   88.1647 C   0  0  0  0  0  0  0  0  0  0  0  0
  124.5417  121.2174   89.1006 C   0  0  0  0  0  0  0  0  0  0  0  0
  120.5184  119.9242   92.6793 H   0  0  0  0  0  0  0  0  0  0  0  0
  121.8927  119.9587   91.5086 H   0  0  0  0  0  0  0  0  0  0  0  0
  119.1444  120.7772   90.5584 H   0  0  0  0  0  0  0  0  0  0  0  0
  120.1074  121.8529   92.7170 H   0  0  0  0  0  0  0  0  0  0  0  0
  120.5625  120.8856   88.7596 H   0  0  0  0  0  0  0  0  0  0  0  0
  120.8421  122.5272   89.4329 H   0  0  0  0  0  0  0  0  0  0  0  0
  121.7961  122.2107   87.3358 H   0  0  0  0  0  0  0  0  0  0  0  0
  123.5733  122.7308   85.6582 H   0  0  0  0  0  0  0  0  0  0  0  0
  126.5931  121.3085   88.4000 H   0  0  0  0  0  0  0  0  0  0  0  0
  124.8189  120.7885   90.0749 H   0  0  0  0  0  0  0  0  0  0  0  0
  1  2  3  0
  2  3  1  0
  3  4  1  0
  4  5  1  0
  4  6  1  0
  6  7  1  0
  7  8  1  0
  8  9  2  0
  9 10  1  0
 10 11  2  0
 11 12  1  0
 11 13  1  0
 13 14  2  0
 14  8  1  0
  3 15  1  0
  3 16  1  0
  4 17  1  0
  5 18  1  0
  6 19  1  0
  6 20  1  0
  9 21  1  0
 10 22  1  0
 13 23  1  0
 14 24  1  0
M  END
>  <loss>  (24) 
0.7618508338928223

>  <score>  (24) 
-24.84862518310547

$$$$
LCRZUPUZVGGZJD-UHFFFAOYSA-N
     RDKit          3D

 24 24  0  0  0  0  0  0  0  0999 V2000
  120.2786  117.7737   90.8419 N   0  0  0  0  0  0  0  0  0  0  0  0
  119.9955  118.8986   90.7992 C   0  0  0  0  0  0  0  0  0  0  0  0
  119.6368  120.3216   90.7112 C   0  0  0  0  0  0  0  0  0  0  0  0
  120.8474  121.2065   91.0315 C   0  0  0  0  0  0  0  0  0  0  0  0
  120.5599  121.9934   92.1929 O   0  0  0  0  0  0  0  0  0  0  0  0
  121.1668  122.1523   89.8638 C   0  0  0  0  0  0  0  0  0  0  0  0
  121.6062  121.4464   88.7058 O   0  0  0  0  0  0  0  0  0  0  0  0
  122.9039  121.5768   88.3011 C   0  0  0  0  0  0  0  0  0  0  0  0
  123.0603  122.2332   87.0755 C   0  0  0  0  0  0  0  0  0  0  0  0
  124.3300  122.4372   86.5303 C   0  0  0  0  0  0  0  0  0  0  0  0
  125.4519  121.9823   87.2152 C   0  0  0  0  0  0  0  0  0  0  0  0
  127.0198  122.2290   86.5534 Cl  0  0  0  0  0  0  0  0  0  0  0  0
  125.3098  121.3277   88.4368 C   0  0  0  0  0  0  0  0  0  0  0  0
  124.0357  121.1249   88.9809 C   0  0  0  0  0  0  0  0  0  0  0  0
  119.2869  120.5434   89.6922 H   0  0  0  0  0  0  0  0  0  0  0  0
  118.8419  120.5318   91.4419 H   0  0  0  0  0  0  0  0  0  0  0  0
  121.7154  120.5541   91.2068 H   0  0  0  0  0  0  0  0  0  0  0  0
  120.7534  121.4636   93.0066 H   0  0  0  0  0  0  0  0  0  0  0  0
  120.2600  122.7207   89.6096 H   0  0  0  0  0  0  0  0  0  0  0  0
  121.9809  122.8201   90.1821 H   0  0  0  0  0  0  0  0  0  0  0  0
  122.1725  122.5930   86.5347 H   0  0  0  0  0  0  0  0  0  0  0  0
  124.4419  122.9542   85.5658 H   0  0  0  0  0  0  0  0  0  0  0  0
  126.2000  120.9697   88.9748 H   0  0  0  0  0  0  0  0  0  0  0  0
  123.9267  120.6084   89.9460 H   0  0  0  0  0  0  0  0  0  0  0  0
  1  2  3  0
  2  3  1  0
  3  4  1  0
  4  5  1  0
  4  6  1  0
  6  7  1  0
  7  8  1  0
  8  9  2  0
  9 10  1  0
 10 11  2  0
 11 12  1  0
 11 13  1  0
 13 14  2  0
 14  8  1  0
  3 15  1  0
  3 16  1  0
  4 17  1  0
  5 18  1  0
  6 19  1  0
  6 20  1  0
  9 21  1  0
 10 22  1  0
 13 23  1  0
 14 24  1  0
M  END
>  <loss>  (25) 
0.7608758211135864

>  <score>  (25) 
-40.191802978515625

$$$$
