LIIRNJNGOKYCIP-UHFFFAOYSA-N
     RDKit          3D

 27 27  0  0  0  0  0  0  0  0999 V2000
  127.4983  121.9106   87.2626 C   0  0  0  0  0  0  0  0  0  0  0  0
  126.0070  121.9006   87.4448 C   0  0  0  0  0  0  0  0  0  0  0  0
  125.1726  122.0354   86.3261 C   0  0  0  0  0  0  0  0  0  0  0  0
  123.7829  122.0284   86.4723 C   0  0  0  0  0  0  0  0  0  0  0  0
  123.1974  121.9014   87.7333 C   0  0  0  0  0  0  0  0  0  0  0  0
  121.7976  121.8679   87.8295 N   0  0  0  0  0  0  0  0  0  0  0  0
  121.0544  122.5524   87.0119 C   0  0  0  0  0  0  0  0  0  0  0  0
  119.7099  122.5372   87.1926 N   0  0  0  0  0  0  0  0  0  0  0  0
  121.5495  123.3266   86.0082 N   0  0  0  0  0  0  0  0  0  0  0  0
  120.7200  124.0396   85.3291 C   0  0  0  0  0  0  0  0  0  0  0  0
  119.3773  124.1669   85.4538 N   0  0  0  0  0  0  0  0  0  0  0  0
  121.1602  124.8247   84.3185 N   0  0  0  0  0  0  0  0  0  0  0  0
  124.0232  121.7378   88.8475 C   0  0  0  0  0  0  0  0  0  0  0  0
  125.4135  121.7473   88.7078 C   0  0  0  0  0  0  0  0  0  0  0  0
  126.3704  121.5583   90.1353 Cl  0  0  0  0  0  0  0  0  0  0  0  0
  127.9880  121.9139   88.2476 H   0  0  0  0  0  0  0  0  0  0  0  0
  127.8054  121.0145   86.7034 H   0  0  0  0  0  0  0  0  0  0  0  0
  127.7933  122.8108   86.7034 H   0  0  0  0  0  0  0  0  0  0  0  0
  125.6155  122.1476   85.3255 H   0  0  0  0  0  0  0  0  0  0  0  0
  123.1425  122.1242   85.5830 H   0  0  0  0  0  0  0  0  0  0  0  0
  119.0989  123.0713   86.5584 H   0  0  0  0  0  0  0  0  0  0  0  0
  119.3002  121.9916   87.9642 H   0  0  0  0  0  0  0  0  0  0  0  0
  118.8578  124.7896   84.8187 H   0  0  0  0  0  0  0  0  0  0  0  0
  118.8757  123.6411   86.1838 H   0  0  0  0  0  0  0  0  0  0  0  0
  120.4915  125.3928   83.7790 H   0  0  0  0  0  0  0  0  0  0  0  0
  122.1638  124.8541   84.0888 H   0  0  0  0  0  0  0  0  0  0  0  0
  123.5758  121.6005   89.8430 H   0  0  0  0  0  0  0  0  0  0  0  0
  1  2  1  0
  2  3  2  0
  3  4  1  0
  4  5  2  0
  5  6  1  0
  6  7  2  3
  7  8  1  0
  7  9  1  0
  9 10  2  3
 10 11  1  0
 10 12  1  0
  5 13  1  0
 13 14  2  0
 14 15  1  0
 14  2  1  0
  1 16  1  0
  1 17  1  0
  1 18  1  0
  3 19  1  0
  4 20  1  0
  8 21  1  0
  8 22  1  0
 11 23  1  0
 11 24  1  0
 12 25  1  0
 12 26  1  0
 13 27  1  0
M  END
>  <loss>  (1) 
0.6486431360244751

>  <score>  (1) 
4.347874641418457

$$$$
LIIRNJNGOKYCIP-UHFFFAOYSA-N
     RDKit          3D

 27 27  0  0  0  0  0  0  0  0999 V2000
  126.9046  121.5553   88.6455 C   0  0  0  0  0  0  0  0  0  0  0  0
  125.6040  121.7022   87.9072 C   0  0  0  0  0  0  0  0  0  0  0  0
  125.5779  122.3863   86.6830 C   0  0  0  0  0  0  0  0  0  0  0  0
  124.3806  122.5379   85.9796 C   0  0  0  0  0  0  0  0  0  0  0  0
  123.1923  122.0011   86.4777 C   0  0  0  0  0  0  0  0  0  0  0  0
  121.9853  122.1685   85.7875 N   0  0  0  0  0  0  0  0  0  0  0  0
  120.9541  122.6627   86.4028 C   0  0  0  0  0  0  0  0  0  0  0  0
  120.9218  123.0789   87.6991 N   0  0  0  0  0  0  0  0  0  0  0  0
  119.7681  122.8059   85.7382 N   0  0  0  0  0  0  0  0  0  0  0  0
  119.6246  123.6240   84.7551 C   0  0  0  0  0  0  0  0  0  0  0  0
  118.4359  123.7234   84.1147 N   0  0  0  0  0  0  0  0  0  0  0  0
  120.5074  124.4908   84.2063 N   0  0  0  0  0  0  0  0  0  0  0  0
  123.2052  121.3352   87.7027 C   0  0  0  0  0  0  0  0  0  0  0  0
  124.4008  121.1819   88.4099 C   0  0  0  0  0  0  0  0  0  0  0  0
  124.3445  120.3330   89.9143 Cl  0  0  0  0  0  0  0  0  0  0  0  0
  126.7157  121.5767   89.7289 H   0  0  0  0  0  0  0  0  0  0  0  0
  127.3743  120.5984   88.3740 H   0  0  0  0  0  0  0  0  0  0  0  0
  127.5759  122.3834   88.3740 H   0  0  0  0  0  0  0  0  0  0  0  0
  126.5081  122.8069   86.2734 H   0  0  0  0  0  0  0  0  0  0  0  0
  124.3742  123.0850   85.0253 H   0  0  0  0  0  0  0  0  0  0  0  0
  120.0506  123.4581   88.0968 H   0  0  0  0  0  0  0  0  0  0  0  0
  121.7686  123.0144   88.2819 H   0  0  0  0  0  0  0  0  0  0  0  0
  118.3277  124.3801   83.3286 H   0  0  0  0  0  0  0  0  0  0  0  0
  117.6397  123.1423   84.4136 H   0  0  0  0  0  0  0  0  0  0  0  0
  120.2233  125.0808   83.4113 H   0  0  0  0  0  0  0  0  0  0  0  0
  121.4632  124.5605   84.5837 H   0  0  0  0  0  0  0  0  0  0  0  0
  122.2698  120.9285   88.1145 H   0  0  0  0  0  0  0  0  0  0  0  0
  1  2  1  0
  2  3  2  0
  3  4  1  0
  4  5  2  0
  5  6  1  0
  6  7  2  3
  7  8  1  0
  7  9  1  0
  9 10  2  3
 10 11  1  0
 10 12  1  0
  5 13  1  0
 13 14  2  0
 14 15  1  0
 14  2  1  0
  1 16  1  0
  1 17  1  0
  1 18  1  0
  3 19  1  0
  4 20  1  0
  8 21  1  0
  8 22  1  0
 11 23  1  0
 11 24  1  0
 12 25  1  0
 12 26  1  0
 13 27  1  0
M  END
>  <loss>  (2) 
0.5123521089553833

>  <score>  (2) 
3.443267345428467

$$$$
LIIRNJNGOKYCIP-UHFFFAOYSA-N
     RDKit          3D

 27 27  0  0  0  0  0  0  0  0999 V2000
  126.9070  121.5454   88.6568 C   0  0  0  0  0  0  0  0  0  0  0  0
  125.6052  121.6943   87.9207 C   0  0  0  0  0  0  0  0  0  0  0  0
  125.5768  122.3919   86.7040 C   0  0  0  0  0  0  0  0  0  0  0  0
  124.3791  122.5447   86.0011 C   0  0  0  0  0  0  0  0  0  0  0  0
  123.1875  122.0216   86.5077 C   0  0  0  0  0  0  0  0  0  0  0  0
  121.9865  122.1531   85.7999 N   0  0  0  0  0  0  0  0  0  0  0  0
  120.9552  122.6893   86.3768 C   0  0  0  0  0  0  0  0  0  0  0  0
  120.8908  123.1265   87.6648 N   0  0  0  0  0  0  0  0  0  0  0  0
  119.7835  122.7993   85.6823 N   0  0  0  0  0  0  0  0  0  0  0  0
  119.6470  123.6620   84.7366 C   0  0  0  0  0  0  0  0  0  0  0  0
  120.5265  124.5753   84.2610 N   0  0  0  0  0  0  0  0  0  0  0  0
  118.4788  123.7594   84.0586 N   0  0  0  0  0  0  0  0  0  0  0  0
  123.2090  121.3144   87.7091 C   0  0  0  0  0  0  0  0  0  0  0  0
  124.4050  121.1588   88.4148 C   0  0  0  0  0  0  0  0  0  0  0  0
  124.3512  120.2941   89.9104 Cl  0  0  0  0  0  0  0  0  0  0  0  0
  126.7199  121.5668   89.7405 H   0  0  0  0  0  0  0  0  0  0  0  0
  127.3749  120.5879   88.3843 H   0  0  0  0  0  0  0  0  0  0  0  0
  127.5789  122.3726   88.3843 H   0  0  0  0  0  0  0  0  0  0  0  0
  126.5051  122.8222   86.3001 H   0  0  0  0  0  0  0  0  0  0  0  0
  124.3747  123.0813   85.0409 H   0  0  0  0  0  0  0  0  0  0  0  0
  120.0187  123.5390   88.0257 H   0  0  0  0  0  0  0  0  0  0  0  0
  121.7142  123.0448   88.2782 H   0  0  0  0  0  0  0  0  0  0  0  0
  120.2537  125.1990   83.4880 H   0  0  0  0  0  0  0  0  0  0  0  0
  121.4682  124.6462   84.6722 H   0  0  0  0  0  0  0  0  0  0  0  0
  118.3779  124.4524   83.3034 H   0  0  0  0  0  0  0  0  0  0  0  0
  117.6912  123.1404   84.2982 H   0  0  0  0  0  0  0  0  0  0  0  0
  122.2800  120.8769   88.1033 H   0  0  0  0  0  0  0  0  0  0  0  0
  1  2  1  0
  2  3  2  0
  3  4  1  0
  4  5  2  0
  5  6  1  0
  6  7  2  3
  7  8  1  0
  7  9  1  0
  9 10  2  3
 10 11  1  0
 10 12  1  0
  5 13  1  0
 13 14  2  0
 14 15  1  0
 14  2  1  0
  1 16  1  0
  1 17  1  0
  1 18  1  0
  3 19  1  0
  4 20  1  0
  8 21  1  0
  8 22  1  0
 11 23  1  0
 11 24  1  0
 12 25  1  0
 12 26  1  0
 13 27  1  0
M  END
>  <loss>  (3) 
0.509873628616333

>  <score>  (3) 
3.3845534324645996

$$$$
LIIRNJNGOKYCIP-UHFFFAOYSA-N
     RDKit          3D

 27 27  0  0  0  0  0  0  0  0999 V2000
  126.9099  121.5510   88.6479 C   0  0  0  0  0  0  0  0  0  0  0  0
  125.6040  121.6953   87.9187 C   0  0  0  0  0  0  0  0  0  0  0  0
  125.5663  122.3930   86.7025 C   0  0  0  0  0  0  0  0  0  0  0  0
  124.3642  122.5437   86.0074 C   0  0  0  0  0  0  0  0  0  0  0  0
  123.1777  122.0142   86.5183 C   0  0  0  0  0  0  0  0  0  0  0  0
  121.9736  122.1399   85.8143 N   0  0  0  0  0  0  0  0  0  0  0  0
  120.9453  122.6874   86.3875 C   0  0  0  0  0  0  0  0  0  0  0  0
  120.8838  123.1305   87.6736 N   0  0  0  0  0  0  0  0  0  0  0  0
  119.7746  122.8027   85.6926 N   0  0  0  0  0  0  0  0  0  0  0  0
  119.6445  123.6599   84.7408 C   0  0  0  0  0  0  0  0  0  0  0  0
  118.4732  123.7676   84.0697 N   0  0  0  0  0  0  0  0  0  0  0  0
  120.5303  124.5617   84.2550 N   0  0  0  0  0  0  0  0  0  0  0  0
  123.2082  121.3064   87.7192 C   0  0  0  0  0  0  0  0  0  0  0  0
  124.4087  121.1539   88.4184 C   0  0  0  0  0  0  0  0  0  0  0  0
  124.3679  120.2831   89.9106 Cl  0  0  0  0  0  0  0  0  0  0  0  0
  126.7283  121.5711   89.7326 H   0  0  0  0  0  0  0  0  0  0  0  0
  127.3800  120.5955   88.3725 H   0  0  0  0  0  0  0  0  0  0  0  0
  127.5772  122.3809   88.3725 H   0  0  0  0  0  0  0  0  0  0  0  0
  126.4911  122.8251   86.2927 H   0  0  0  0  0  0  0  0  0  0  0  0
  124.3522  123.0842   85.0493 H   0  0  0  0  0  0  0  0  0  0  0  0
  120.0150  123.5519   88.0321 H   0  0  0  0  0  0  0  0  0  0  0  0
  121.7060  123.0442   88.2880 H   0  0  0  0  0  0  0  0  0  0  0  0
  118.3768  124.4558   83.3094 H   0  0  0  0  0  0  0  0  0  0  0  0
  117.6789  123.1614   84.3195 H   0  0  0  0  0  0  0  0  0  0  0  0
  120.2604  125.1817   83.4781 H   0  0  0  0  0  0  0  0  0  0  0  0
  121.4740  124.6276   84.6625 H   0  0  0  0  0  0  0  0  0  0  0  0
  122.2826  120.8659   88.1184 H   0  0  0  0  0  0  0  0  0  0  0  0
  1  2  1  0
  2  3  2  0
  3  4  1  0
  4  5  2  0
  5  6  1  0
  6  7  2  3
  7  8  1  0
  7  9  1  0
  9 10  2  3
 10 11  1  0
 10 12  1  0
  5 13  1  0
 13 14  2  0
 14 15  1  0
 14  2  1  0
  1 16  1  0
  1 17  1  0
  1 18  1  0
  3 19  1  0
  4 20  1  0
  8 21  1  0
  8 22  1  0
 11 23  1  0
 11 24  1  0
 12 25  1  0
 12 26  1  0
 13 27  1  0
M  END
>  <loss>  (4) 
0.5095866322517395

>  <score>  (4) 
3.3791708946228027

$$$$
LIIRNJNGOKYCIP-UHFFFAOYSA-N
     RDKit          3D

 27 27  0  0  0  0  0  0  0  0999 V2000
  126.8881  121.5789   88.7090 C   0  0  0  0  0  0  0  0  0  0  0  0
  125.5963  121.7152   87.9533 C   0  0  0  0  0  0  0  0  0  0  0  0
  125.5875  122.3690   86.7124 C   0  0  0  0  0  0  0  0  0  0  0  0
  124.3988  122.5103   85.9925 C   0  0  0  0  0  0  0  0  0  0  0  0
  123.2019  121.9930   86.4907 C   0  0  0  0  0  0  0  0  0  0  0  0
  122.0034  122.1504   85.7836 N   0  0  0  0  0  0  0  0  0  0  0  0
  120.9704  122.6709   86.3737 C   0  0  0  0  0  0  0  0  0  0  0  0
  120.9287  123.1246   87.6572 N   0  0  0  0  0  0  0  0  0  0  0  0
  119.7924  122.8047   85.6931 N   0  0  0  0  0  0  0  0  0  0  0  0
  119.6617  123.6065   84.6950 C   0  0  0  0  0  0  0  0  0  0  0  0
  118.4806  123.6970   84.0393 N   0  0  0  0  0  0  0  0  0  0  0  0
  120.5521  124.4629   84.1423 N   0  0  0  0  0  0  0  0  0  0  0  0
  123.1976  121.3574   87.7319 C   0  0  0  0  0  0  0  0  0  0  0  0
  124.3846  121.2145   88.4556 C   0  0  0  0  0  0  0  0  0  0  0  0
  124.3070  120.4034   89.9797 Cl  0  0  0  0  0  0  0  0  0  0  0  0
  126.6846  121.6004   89.7898 H   0  0  0  0  0  0  0  0  0  0  0  0
  127.3683  120.6251   88.4451 H   0  0  0  0  0  0  0  0  0  0  0  0
  127.5568  122.4114   88.4451 H   0  0  0  0  0  0  0  0  0  0  0  0
  126.5247  122.7738   86.3026 H   0  0  0  0  0  0  0  0  0  0  0  0
  124.4059  123.0337   85.0250 H   0  0  0  0  0  0  0  0  0  0  0  0
  120.0568  123.5224   88.0347 H   0  0  0  0  0  0  0  0  0  0  0  0
  121.7690  123.0699   88.2503 H   0  0  0  0  0  0  0  0  0  0  0  0
  118.3826  124.3408   83.2412 H   0  0  0  0  0  0  0  0  0  0  0  0
  117.6801  123.1220   84.3384 H   0  0  0  0  0  0  0  0  0  0  0  0
  120.2783  125.0401   83.3344 H   0  0  0  0  0  0  0  0  0  0  0  0
  121.5036  124.5375   84.5296 H   0  0  0  0  0  0  0  0  0  0  0  0
  122.2553  120.9666   88.1434 H   0  0  0  0  0  0  0  0  0  0  0  0
  1  2  1  0
  2  3  2  0
  3  4  1  0
  4  5  2  0
  5  6  1  0
  6  7  2  3
  7  8  1  0
  7  9  1  0
  9 10  2  3
 10 11  1  0
 10 12  1  0
  5 13  1  0
 13 14  2  0
 14 15  1  0
 14  2  1  0
  1 16  1  0
  1 17  1  0
  1 18  1  0
  3 19  1  0
  4 20  1  0
  8 21  1  0
  8 22  1  0
 11 23  1  0
 11 24  1  0
 12 25  1  0
 12 26  1  0
 13 27  1  0
M  END
>  <loss>  (5) 
0.5188689231872559

>  <score>  (5) 
3.4002411365509033

$$$$
LIIRNJNGOKYCIP-UHFFFAOYSA-N
     RDKit          3D

 27 27  0  0  0  0  0  0  0  0999 V2000
  126.8992  121.5656   88.6942 C   0  0  0  0  0  0  0  0  0  0  0  0
  125.5996  121.7019   87.9524 C   0  0  0  0  0  0  0  0  0  0  0  0
  125.5786  122.3568   86.7121 C   0  0  0  0  0  0  0  0  0  0  0  0
  124.3826  122.4994   86.0047 C   0  0  0  0  0  0  0  0  0  0  0  0
  123.1860  122.0046   86.5267 C   0  0  0  0  0  0  0  0  0  0  0  0
  121.9878  122.1220   85.8113 N   0  0  0  0  0  0  0  0  0  0  0  0
  120.9587  122.6880   86.3649 C   0  0  0  0  0  0  0  0  0  0  0  0
  120.8906  123.1594   87.6405 N   0  0  0  0  0  0  0  0  0  0  0  0
  119.7938  122.7950   85.6591 N   0  0  0  0  0  0  0  0  0  0  0  0
  119.6750  123.6333   84.6892 C   0  0  0  0  0  0  0  0  0  0  0  0
  118.5093  123.7332   84.0073 N   0  0  0  0  0  0  0  0  0  0  0  0
  120.5690  124.5206   84.1918 N   0  0  0  0  0  0  0  0  0  0  0  0
  123.1998  121.3394   87.7519 C   0  0  0  0  0  0  0  0  0  0  0  0
  124.3940  121.1951   88.4634 C   0  0  0  0  0  0  0  0  0  0  0  0
  124.3327  120.3781   89.9851 Cl  0  0  0  0  0  0  0  0  0  0  0  0
  126.7071  121.5857   89.7771 H   0  0  0  0  0  0  0  0  0  0  0  0
  127.3772  120.6123   88.4243 H   0  0  0  0  0  0  0  0  0  0  0  0
  127.5647  122.3988   88.4243 H   0  0  0  0  0  0  0  0  0  0  0  0
  126.5117  122.7614   86.2931 H   0  0  0  0  0  0  0  0  0  0  0  0
  124.3836  123.0058   85.0282 H   0  0  0  0  0  0  0  0  0  0  0  0
  120.0218  123.5937   87.9834 H   0  0  0  0  0  0  0  0  0  0  0  0
  121.7078  123.0818   88.2626 H   0  0  0  0  0  0  0  0  0  0  0  0
  118.4220  124.4062   83.2325 H   0  0  0  0  0  0  0  0  0  0  0  0
  117.7101  123.1361   84.2634 H   0  0  0  0  0  0  0  0  0  0  0  0
  120.3080  125.1260   83.4004 H   0  0  0  0  0  0  0  0  0  0  0  0
  121.5100  124.5901   84.6049 H   0  0  0  0  0  0  0  0  0  0  0  0
  122.2659  120.9260   88.1607 H   0  0  0  0  0  0  0  0  0  0  0  0
  1  2  1  0
  2  3  2  0
  3  4  1  0
  4  5  2  0
  5  6  1  0
  6  7  2  3
  7  8  1  0
  7  9  1  0
  9 10  2  3
 10 11  1  0
 10 12  1  0
  5 13  1  0
 13 14  2  0
 14 15  1  0
 14  2  1  0
  1 16  1  0
  1 17  1  0
  1 18  1  0
  3 19  1  0
  4 20  1  0
  8 21  1  0
  8 22  1  0
 11 23  1  0
 11 24  1  0
 12 25  1  0
 12 26  1  0
 13 27  1  0
M  END
>  <loss>  (6) 
0.5162087082862854

>  <score>  (6) 
3.3606746196746826

$$$$
LIIRNJNGOKYCIP-UHFFFAOYSA-N
     RDKit          3D

 27 27  0  0  0  0  0  0  0  0999 V2000
  126.9140  121.6090   88.6935 C   0  0  0  0  0  0  0  0  0  0  0  0
  125.6179  121.7261   87.9420 C   0  0  0  0  0  0  0  0  0  0  0  0
  125.5854  122.4232   86.7253 C   0  0  0  0  0  0  0  0  0  0  0  0
  124.3920  122.5477   86.0098 C   0  0  0  0  0  0  0  0  0  0  0  0
  123.2146  121.9704   86.4881 C   0  0  0  0  0  0  0  0  0  0  0  0
  122.0110  122.1101   85.7859 N   0  0  0  0  0  0  0  0  0  0  0  0
  120.9791  122.6356   86.3737 C   0  0  0  0  0  0  0  0  0  0  0  0
  120.9432  123.1108   87.6495 N   0  0  0  0  0  0  0  0  0  0  0  0
  119.7963  122.7523   85.6983 N   0  0  0  0  0  0  0  0  0  0  0  0
  119.6061  123.6474   84.7934 C   0  0  0  0  0  0  0  0  0  0  0  0
  118.4235  123.7181   84.1379 N   0  0  0  0  0  0  0  0  0  0  0  0
  120.4283  124.6264   84.3490 N   0  0  0  0  0  0  0  0  0  0  0  0
  123.2335  121.2910   87.7057 C   0  0  0  0  0  0  0  0  0  0  0  0
  124.4251  121.1648   88.4249 C   0  0  0  0  0  0  0  0  0  0  0  0
  124.3771  120.2973   89.9188 Cl  0  0  0  0  0  0  0  0  0  0  0  0
  126.7137  121.6271   89.7749 H   0  0  0  0  0  0  0  0  0  0  0  0
  127.4077  120.6626   88.4278 H   0  0  0  0  0  0  0  0  0  0  0  0
  127.5693  122.4516   88.4278 H   0  0  0  0  0  0  0  0  0  0  0  0
  126.5073  122.8757   86.3312 H   0  0  0  0  0  0  0  0  0  0  0  0
  124.3801  123.1053   85.0617 H   0  0  0  0  0  0  0  0  0  0  0  0
  120.0718  123.5109   88.0257 H   0  0  0  0  0  0  0  0  0  0  0  0
  121.7874  123.0702   88.2381 H   0  0  0  0  0  0  0  0  0  0  0  0
  118.2778  124.4369   83.4147 H   0  0  0  0  0  0  0  0  0  0  0  0
  117.6697  123.0531   84.3624 H   0  0  0  0  0  0  0  0  0  0  0  0
  120.1124  125.2666   83.6065 H   0  0  0  0  0  0  0  0  0  0  0  0
  121.3699  124.7311   84.7532 H   0  0  0  0  0  0  0  0  0  0  0  0
  122.3059  120.8523   88.1021 H   0  0  0  0  0  0  0  0  0  0  0  0
  1  2  1  0
  2  3  2  0
  3  4  1  0
  4  5  2  0
  5  6  1  0
  6  7  2  3
  7  8  1  0
  7  9  1  0
  9 10  2  3
 10 11  1  0
 10 12  1  0
  5 13  1  0
 13 14  2  0
 14 15  1  0
 14  2  1  0
  1 16  1  0
  1 17  1  0
  1 18  1  0
  3 19  1  0
  4 20  1  0
  8 21  1  0
  8 22  1  0
 11 23  1  0
 11 24  1  0
 12 25  1  0
 12 26  1  0
 13 27  1  0
M  END
>  <loss>  (7) 
0.5467970967292786

>  <score>  (7) 
3.4612419605255127

$$$$
LIIRNJNGOKYCIP-UHFFFAOYSA-N
     RDKit          3D

 27 27  0  0  0  0  0  0  0  0999 V2000
  126.9254  121.5846   88.6725 C   0  0  0  0  0  0  0  0  0  0  0  0
  125.6233  121.7100   87.9333 C   0  0  0  0  0  0  0  0  0  0  0  0
  125.5846  122.4090   86.7177 C   0  0  0  0  0  0  0  0  0  0  0  0
  124.3858  122.5424   86.0134 C   0  0  0  0  0  0  0  0  0  0  0  0
  123.2035  121.9941   86.5142 C   0  0  0  0  0  0  0  0  0  0  0  0
  122.0032  122.1025   85.8008 N   0  0  0  0  0  0  0  0  0  0  0  0
  120.9677  122.6509   86.3601 C   0  0  0  0  0  0  0  0  0  0  0  0
  120.8950  123.1106   87.6398 N   0  0  0  0  0  0  0  0  0  0  0  0
  119.8009  122.7493   85.6563 N   0  0  0  0  0  0  0  0  0  0  0  0
  119.6197  123.6851   84.7908 C   0  0  0  0  0  0  0  0  0  0  0  0
  118.4526  123.7735   84.1098 N   0  0  0  0  0  0  0  0  0  0  0  0
  120.4423  124.6927   84.4139 N   0  0  0  0  0  0  0  0  0  0  0  0
  123.2353  121.2851   87.7143 C   0  0  0  0  0  0  0  0  0  0  0  0
  124.4325  121.1498   88.4227 C   0  0  0  0  0  0  0  0  0  0  0  0
  124.3933  120.2762   89.9133 Cl  0  0  0  0  0  0  0  0  0  0  0  0
  126.7353  121.6029   89.7558 H   0  0  0  0  0  0  0  0  0  0  0  0
  127.4110  120.6355   88.4015 H   0  0  0  0  0  0  0  0  0  0  0  0
  127.5833  122.4235   88.4015 H   0  0  0  0  0  0  0  0  0  0  0  0
  126.5059  122.8557   86.3159 H   0  0  0  0  0  0  0  0  0  0  0  0
  124.3731  123.0841   85.0560 H   0  0  0  0  0  0  0  0  0  0  0  0
  120.0212  123.5311   87.9871 H   0  0  0  0  0  0  0  0  0  0  0  0
  121.7137  123.0379   88.2605 H   0  0  0  0  0  0  0  0  0  0  0  0
  118.3151  124.5250   83.4189 H   0  0  0  0  0  0  0  0  0  0  0  0
  117.7023  123.0894   84.2828 H   0  0  0  0  0  0  0  0  0  0  0  0
  120.1372  125.3655   83.6962 H   0  0  0  0  0  0  0  0  0  0  0  0
  121.3731  124.7862   84.8450 H   0  0  0  0  0  0  0  0  0  0  0  0
  122.3135  120.8299   88.1055 H   0  0  0  0  0  0  0  0  0  0  0  0
  1  2  1  0
  2  3  2  0
  3  4  1  0
  4  5  2  0
  5  6  1  0
  6  7  2  3
  7  8  1  0
  7  9  1  0
  9 10  2  3
 10 11  1  0
 10 12  1  0
  5 13  1  0
 13 14  2  0
 14 15  1  0
 14  2  1  0
  1 16  1  0
  1 17  1  0
  1 18  1  0
  3 19  1  0
  4 20  1  0
  8 21  1  0
  8 22  1  0
 11 23  1  0
 11 24  1  0
 12 25  1  0
 12 26  1  0
 13 27  1  0
M  END
>  <loss>  (8) 
0.5439767241477966

>  <score>  (8) 
3.4367401599884033

$$$$
LIIRNJNGOKYCIP-UHFFFAOYSA-N
     RDKit          3D

 27 27  0  0  0  0  0  0  0  0999 V2000
  126.9208  121.5778   88.6906 C   0  0  0  0  0  0  0  0  0  0  0  0
  125.6223  121.7063   87.9450 C   0  0  0  0  0  0  0  0  0  0  0  0
  125.5901  122.4113   86.7327 C   0  0  0  0  0  0  0  0  0  0  0  0
  124.3953  122.5455   86.0211 C   0  0  0  0  0  0  0  0  0  0  0  0
  123.2101  121.9962   86.5147 C   0  0  0  0  0  0  0  0  0  0  0  0
  122.0124  122.1091   85.7980 N   0  0  0  0  0  0  0  0  0  0  0  0
  120.9759  122.6523   86.3589 C   0  0  0  0  0  0  0  0  0  0  0  0
  120.9029  123.1142   87.6378 N   0  0  0  0  0  0  0  0  0  0  0  0
  119.8076  122.7441   85.6562 N   0  0  0  0  0  0  0  0  0  0  0  0
  119.6206  123.6798   84.7920 C   0  0  0  0  0  0  0  0  0  0  0  0
  120.4378  124.6932   84.4192 N   0  0  0  0  0  0  0  0  0  0  0  0
  118.4565  123.7578   84.1046 N   0  0  0  0  0  0  0  0  0  0  0  0
  123.2357  121.2816   87.7116 C   0  0  0  0  0  0  0  0  0  0  0  0
  124.4288  121.1444   88.4260 C   0  0  0  0  0  0  0  0  0  0  0  0
  124.3799  120.2690   89.9155 Cl  0  0  0  0  0  0  0  0  0  0  0  0
  126.7256  121.5971   89.7730 H   0  0  0  0  0  0  0  0  0  0  0  0
  127.4052  120.6273   88.4223 H   0  0  0  0  0  0  0  0  0  0  0  0
  127.5821  122.4148   88.4223 H   0  0  0  0  0  0  0  0  0  0  0  0
  126.5131  122.8620   86.3391 H   0  0  0  0  0  0  0  0  0  0  0  0
  124.3882  123.0882   85.0643 H   0  0  0  0  0  0  0  0  0  0  0  0
  120.0272  123.5301   87.9860 H   0  0  0  0  0  0  0  0  0  0  0  0
  121.7232  123.0476   88.2570 H   0  0  0  0  0  0  0  0  0  0  0  0
  120.1300  125.3658   83.7023 H   0  0  0  0  0  0  0  0  0  0  0  0
  121.3671  124.7914   84.8524 H   0  0  0  0  0  0  0  0  0  0  0  0
  118.3150  124.5096   83.4150 H   0  0  0  0  0  0  0  0  0  0  0  0
  117.7126  123.0652   84.2714 H   0  0  0  0  0  0  0  0  0  0  0  0
  122.3122  120.8236   88.0955 H   0  0  0  0  0  0  0  0  0  0  0  0
  1  2  1  0
  2  3  2  0
  3  4  1  0
  4  5  2  0
  5  6  1  0
  6  7  2  3
  7  8  1  0
  7  9  1  0
  9 10  2  3
 10 11  1  0
 10 12  1  0
  5 13  1  0
 13 14  2  0
 14 15  1  0
 14  2  1  0
  1 16  1  0
  1 17  1  0
  1 18  1  0
  3 19  1  0
  4 20  1  0
  8 21  1  0
  8 22  1  0
 11 23  1  0
 11 24  1  0
 12 25  1  0
 12 26  1  0
 13 27  1  0
M  END
>  <loss>  (9) 
0.5443775057792664

>  <score>  (9) 
3.429849147796631

$$$$
LIIRNJNGOKYCIP-UHFFFAOYSA-N
     RDKit          3D

 27 27  0  0  0  0  0  0  0  0999 V2000
  126.9160  121.6060   88.7337 C   0  0  0  0  0  0  0  0  0  0  0  0
  125.6233  121.7204   87.9758 C   0  0  0  0  0  0  0  0  0  0  0  0
  125.6085  122.3675   86.7313 C   0  0  0  0  0  0  0  0  0  0  0  0
  124.4194  122.4875   86.0077 C   0  0  0  0  0  0  0  0  0  0  0  0
  123.2229  121.9817   86.5203 C   0  0  0  0  0  0  0  0  0  0  0  0
  122.0306  122.0802   85.7926 N   0  0  0  0  0  0  0  0  0  0  0  0
  120.9982  122.6589   86.3247 C   0  0  0  0  0  0  0  0  0  0  0  0
  120.9242  123.1737   87.5832 N   0  0  0  0  0  0  0  0  0  0  0  0
  119.8349  122.7365   85.6120 N   0  0  0  0  0  0  0  0  0  0  0  0
  119.6415  123.6734   84.7506 C   0  0  0  0  0  0  0  0  0  0  0  0
  120.4465  124.7008   84.3898 N   0  0  0  0  0  0  0  0  0  0  0  0
  118.4825  123.7371   84.0531 N   0  0  0  0  0  0  0  0  0  0  0  0
  123.2311  121.3244   87.7498 C   0  0  0  0  0  0  0  0  0  0  0  0
  124.4184  121.2017   88.4763 C   0  0  0  0  0  0  0  0  0  0  0  0
  124.3480  120.3988   90.0053 Cl  0  0  0  0  0  0  0  0  0  0  0  0
  126.7105  121.6242   89.8141 H   0  0  0  0  0  0  0  0  0  0  0  0
  127.4128  120.6604   88.4708 H   0  0  0  0  0  0  0  0  0  0  0  0
  127.5710  122.4497   88.4708 H   0  0  0  0  0  0  0  0  0  0  0  0
  126.5407  122.7839   86.3218 H   0  0  0  0  0  0  0  0  0  0  0  0
  124.4257  122.9843   85.0263 H   0  0  0  0  0  0  0  0  0  0  0  0
  120.0522  123.6146   87.9089 H   0  0  0  0  0  0  0  0  0  0  0  0
  121.7404  123.1223   88.2094 H   0  0  0  0  0  0  0  0  0  0  0  0
  120.1350  125.3721   83.6734 H   0  0  0  0  0  0  0  0  0  0  0  0
  121.3703  124.8109   84.8318 H   0  0  0  0  0  0  0  0  0  0  0  0
  118.3358  124.4901   83.3658 H   0  0  0  0  0  0  0  0  0  0  0  0
  117.7476  123.0327   84.2100 H   0  0  0  0  0  0  0  0  0  0  0  0
  122.2983  120.9003   88.1499 H   0  0  0  0  0  0  0  0  0  0  0  0
  1  2  1  0
  2  3  2  0
  3  4  1  0
  4  5  2  0
  5  6  1  0
  6  7  2  3
  7  8  1  0
  7  9  1  0
  9 10  2  3
 10 11  1  0
 10 12  1  0
  5 13  1  0
 13 14  2  0
 14 15  1  0
 14  2  1  0
  1 16  1  0
  1 17  1  0
  1 18  1  0
  3 19  1  0
  4 20  1  0
  8 21  1  0
  8 22  1  0
 11 23  1  0
 11 24  1  0
 12 25  1  0
 12 26  1  0
 13 27  1  0
M  END
>  <loss>  (10) 
0.5535117983818054

>  <score>  (10) 
3.4251458644866943

$$$$
LIIRNJNGOKYCIP-UHFFFAOYSA-N
     RDKit          3D

 27 27  0  0  0  0  0  0  0  0999 V2000
  126.8503  121.2229   89.0470 C   0  0  0  0  0  0  0  0  0  0  0  0
  125.5844  121.4573   88.2729 C   0  0  0  0  0  0  0  0  0  0  0  0
  124.3693  120.9642   88.7691 C   0  0  0  0  0  0  0  0  0  0  0  0
  123.1787  121.1718   88.0675 C   0  0  0  0  0  0  0  0  0  0  0  0
  123.1727  121.8867   86.8674 C   0  0  0  0  0  0  0  0  0  0  0  0
  121.9955  122.0830   86.1297 N   0  0  0  0  0  0  0  0  0  0  0  0
  120.9815  122.7052   86.6532 C   0  0  0  0  0  0  0  0  0  0  0  0
  119.8426  122.8145   85.9241 N   0  0  0  0  0  0  0  0  0  0  0  0
  120.9790  123.2157   87.9148 N   0  0  0  0  0  0  0  0  0  0  0  0
  119.9516  123.8961   88.2882 C   0  0  0  0  0  0  0  0  0  0  0  0
  119.8983  124.4279   89.5316 N   0  0  0  0  0  0  0  0  0  0  0  0
  118.8139  124.1941   87.6162 N   0  0  0  0  0  0  0  0  0  0  0  0
  124.3822  122.3562   86.3553 C   0  0  0  0  0  0  0  0  0  0  0  0
  125.5753  122.1528   87.0541 C   0  0  0  0  0  0  0  0  0  0  0  0
  127.0296  122.7853   86.3658 Cl  0  0  0  0  0  0  0  0  0  0  0  0
  126.6339  121.2629   90.1247 H   0  0  0  0  0  0  0  0  0  0  0  0
  127.2585  120.2339   88.7915 H   0  0  0  0  0  0  0  0  0  0  0  0
  127.5856  122.0001   88.7915 H   0  0  0  0  0  0  0  0  0  0  0  0
  124.3531  120.4091   89.7186 H   0  0  0  0  0  0  0  0  0  0  0  0
  122.2358  120.7678   88.4647 H   0  0  0  0  0  0  0  0  0  0  0  0
  119.0250  123.3029   86.3163 H   0  0  0  0  0  0  0  0  0  0  0  0
  119.7957  122.4091   84.9784 H   0  0  0  0  0  0  0  0  0  0  0  0
  119.0738  124.9713   89.8244 H   0  0  0  0  0  0  0  0  0  0  0  0
  120.6823  124.2892   90.1850 H   0  0  0  0  0  0  0  0  0  0  0  0
  118.0808  124.7581   88.0694 H   0  0  0  0  0  0  0  0  0  0  0  0
  118.6818  123.8568   86.6520 H   0  0  0  0  0  0  0  0  0  0  0  0
  124.3971  122.8906   85.3940 H   0  0  0  0  0  0  0  0  0  0  0  0
  1  2  1  0
  2  3  2  0
  3  4  1  0
  4  5  2  0
  5  6  1  0
  6  7  2  3
  7  8  1  0
  7  9  1  0
  9 10  2  3
 10 11  1  0
 10 12  1  0
  5 13  1  0
 13 14  2  0
 14 15  1  0
 14  2  1  0
  1 16  1  0
  1 17  1  0
  1 18  1  0
  3 19  1  0
  4 20  1  0
  8 21  1  0
  8 22  1  0
 11 23  1  0
 11 24  1  0
 12 25  1  0
 12 26  1  0
 13 27  1  0
M  END
>  <loss>  (11) 
0.675468921661377

>  <score>  (11) 
3.7525222301483154

$$$$
LIIRNJNGOKYCIP-UHFFFAOYSA-N
     RDKit          3D

 27 27  0  0  0  0  0  0  0  0999 V2000
  126.8311  121.1726   89.0988 C   0  0  0  0  0  0  0  0  0  0  0  0
  125.5716  121.4245   88.3199 C   0  0  0  0  0  0  0  0  0  0  0  0
  124.3593  120.8844   88.7721 C   0  0  0  0  0  0  0  0  0  0  0  0
  123.1745  121.1071   88.0653 C   0  0  0  0  0  0  0  0  0  0  0  0
  123.1714  121.8837   86.9041 C   0  0  0  0  0  0  0  0  0  0  0  0
  122.0008  122.0973   86.1607 N   0  0  0  0  0  0  0  0  0  0  0  0
  120.9796  122.7011   86.6918 C   0  0  0  0  0  0  0  0  0  0  0  0
  119.8475  122.8275   85.9550 N   0  0  0  0  0  0  0  0  0  0  0  0
  120.9630  123.1752   87.9674 N   0  0  0  0  0  0  0  0  0  0  0  0
  119.9395  123.8603   88.3430 C   0  0  0  0  0  0  0  0  0  0  0  0
  119.8728  124.3570   89.6003 N   0  0  0  0  0  0  0  0  0  0  0  0
  118.8180  124.1947   87.6611 N   0  0  0  0  0  0  0  0  0  0  0  0
  124.3787  122.4009   86.4346 C   0  0  0  0  0  0  0  0  0  0  0  0
  125.5659  122.1827   87.1389 C   0  0  0  0  0  0  0  0  0  0  0  0
  127.0173  122.8762   86.5055 Cl  0  0  0  0  0  0  0  0  0  0  0  0
  126.6113  121.2165   90.1757 H   0  0  0  0  0  0  0  0  0  0  0  0
  127.2261  120.1776   88.8456 H   0  0  0  0  0  0  0  0  0  0  0  0
  127.5784  121.9390   88.8456 H   0  0  0  0  0  0  0  0  0  0  0  0
  124.3407  120.2802   89.6911 H   0  0  0  0  0  0  0  0  0  0  0  0
  122.2341  120.6661   88.4273 H   0  0  0  0  0  0  0  0  0  0  0  0
  119.0243  123.3018   86.3529 H   0  0  0  0  0  0  0  0  0  0  0  0
  119.8112  122.4492   84.9977 H   0  0  0  0  0  0  0  0  0  0  0  0
  119.0515  124.9043   89.8948 H   0  0  0  0  0  0  0  0  0  0  0  0
  120.6433  124.1877   90.2624 H   0  0  0  0  0  0  0  0  0  0  0  0
  118.0857  124.7566   88.1181 H   0  0  0  0  0  0  0  0  0  0  0  0
  118.6975  123.8872   86.6855 H   0  0  0  0  0  0  0  0  0  0  0  0
  124.3965  122.9852   85.5028 H   0  0  0  0  0  0  0  0  0  0  0  0
  1  2  1  0
  2  3  2  0
  3  4  1  0
  4  5  2  0
  5  6  1  0
  6  7  2  3
  7  8  1  0
  7  9  1  0
  9 10  2  3
 10 11  1  0
 10 12  1  0
  5 13  1  0
 13 14  2  0
 14 15  1  0
 14  2  1  0
  1 16  1  0
  1 17  1  0
  1 18  1  0
  3 19  1  0
  4 20  1  0
  8 21  1  0
  8 22  1  0
 11 23  1  0
 11 24  1  0
 12 25  1  0
 12 26  1  0
 13 27  1  0
M  END
>  <loss>  (12) 
0.6704521775245667

>  <score>  (12) 
3.657041311264038

$$$$
LIIRNJNGOKYCIP-UHFFFAOYSA-N
     RDKit          3D

 27 27  0  0  0  0  0  0  0  0999 V2000
  126.8372  121.1974   89.1038 C   0  0  0  0  0  0  0  0  0  0  0  0
  125.5734  121.4385   88.3283 C   0  0  0  0  0  0  0  0  0  0  0  0
  124.3625  120.9108   88.7984 C   0  0  0  0  0  0  0  0  0  0  0  0
  123.1738  121.1239   88.0951 C   0  0  0  0  0  0  0  0  0  0  0  0
  123.1656  121.8783   86.9195 C   0  0  0  0  0  0  0  0  0  0  0  0
  121.9908  122.0815   86.1797 N   0  0  0  0  0  0  0  0  0  0  0  0
  120.9763  122.7018   86.7044 C   0  0  0  0  0  0  0  0  0  0  0  0
  119.8397  122.8178   85.9728 N   0  0  0  0  0  0  0  0  0  0  0  0
  120.9709  123.2038   87.9694 N   0  0  0  0  0  0  0  0  0  0  0  0
  119.9386  123.8739   88.3481 C   0  0  0  0  0  0  0  0  0  0  0  0
  119.8823  124.3969   89.5951 N   0  0  0  0  0  0  0  0  0  0  0  0
  118.7981  124.1676   87.6791 N   0  0  0  0  0  0  0  0  0  0  0  0
  124.3713  122.3829   86.4326 C   0  0  0  0  0  0  0  0  0  0  0  0
  125.5624  122.1743   87.1333 C   0  0  0  0  0  0  0  0  0  0  0  0
  127.0117  122.8513   86.4777 Cl  0  0  0  0  0  0  0  0  0  0  0  0
  126.6197  121.2389   90.1813 H   0  0  0  0  0  0  0  0  0  0  0  0
  127.2403  120.2062   88.8490 H   0  0  0  0  0  0  0  0  0  0  0  0
  127.5769  121.9707   88.8490 H   0  0  0  0  0  0  0  0  0  0  0  0
  124.3480  120.3242   89.7288 H   0  0  0  0  0  0  0  0  0  0  0  0
  122.2344  120.6927   88.4713 H   0  0  0  0  0  0  0  0  0  0  0  0
  119.0216  123.3048   86.3659 H   0  0  0  0  0  0  0  0  0  0  0  0
  119.7948  122.4189   85.0243 H   0  0  0  0  0  0  0  0  0  0  0  0
  119.0539  124.9319   89.8922 H   0  0  0  0  0  0  0  0  0  0  0  0
  120.6679  124.2598   90.2470 H   0  0  0  0  0  0  0  0  0  0  0  0
  118.0611  124.7229   88.1366 H   0  0  0  0  0  0  0  0  0  0  0  0
  118.6678  123.8357   86.7128 H   0  0  0  0  0  0  0  0  0  0  0  0
  124.3849  122.9494   85.4898 H   0  0  0  0  0  0  0  0  0  0  0  0
  1  2  1  0
  2  3  2  0
  3  4  1  0
  4  5  2  0
  5  6  1  0
  6  7  2  3
  7  8  1  0
  7  9  1  0
  9 10  2  3
 10 11  1  0
 10 12  1  0
  5 13  1  0
 13 14  2  0
 14 15  1  0
 14  2  1  0
  1 16  1  0
  1 17  1  0
  1 18  1  0
  3 19  1  0
  4 20  1  0
  8 21  1  0
  8 22  1  0
 11 23  1  0
 11 24  1  0
 12 25  1  0
 12 26  1  0
 13 27  1  0
M  END
>  <loss>  (13) 
0.6769711375236511

>  <score>  (13) 
3.6844000816345215

$$$$
LIIRNJNGOKYCIP-UHFFFAOYSA-N
     RDKit          3D

 27 27  0  0  0  0  0  0  0  0999 V2000
  125.2429  121.0662   89.9007 C   0  0  0  0  0  0  0  0  0  0  0  0
  124.5594  121.4619   88.6223 C   0  0  0  0  0  0  0  0  0  0  0  0
  123.1585  121.5181   88.5777 C   0  0  0  0  0  0  0  0  0  0  0  0
  122.4996  121.8798   87.4004 C   0  0  0  0  0  0  0  0  0  0  0  0
  123.2239  122.1781   86.2447 C   0  0  0  0  0  0  0  0  0  0  0  0
  122.5707  122.5658   85.0681 N   0  0  0  0  0  0  0  0  0  0  0  0
  121.6295  123.4589   85.1170 C   0  0  0  0  0  0  0  0  0  0  0  0
  121.1457  124.0555   86.2414 N   0  0  0  0  0  0  0  0  0  0  0  0
  120.9968  123.8280   83.9637 N   0  0  0  0  0  0  0  0  0  0  0  0
  121.3183  124.9085   83.3419 C   0  0  0  0  0  0  0  0  0  0  0  0
  120.6733  125.2642   82.2056 N   0  0  0  0  0  0  0  0  0  0  0  0
  122.2492  125.8436   83.6468 N   0  0  0  0  0  0  0  0  0  0  0  0
  124.6171  122.1392   86.2838 C   0  0  0  0  0  0  0  0  0  0  0  0
  125.2804  121.7771   87.4594 C   0  0  0  0  0  0  0  0  0  0  0  0
  127.0076  121.7295   87.4290 Cl  0  0  0  0  0  0  0  0  0  0  0  0
  124.6461  121.4117   90.7577 H   0  0  0  0  0  0  0  0  0  0  0  0
  125.3414  119.9714   89.9401 H   0  0  0  0  0  0  0  0  0  0  0  0
  126.2414  121.5259   89.9401 H   0  0  0  0  0  0  0  0  0  0  0  0
  122.5740  121.2753   89.4773 H   0  0  0  0  0  0  0  0  0  0  0  0
  121.4009  121.9300   87.3837 H   0  0  0  0  0  0  0  0  0  0  0  0
  120.3935  124.7555   86.1701 H   0  0  0  0  0  0  0  0  0  0  0  0
  121.5320  123.8068   87.1633 H   0  0  0  0  0  0  0  0  0  0  0  0
  120.9362  126.1302   81.7137 H   0  0  0  0  0  0  0  0  0  0  0  0
  119.9199  124.6688   81.8331 H   0  0  0  0  0  0  0  0  0  0  0  0
  122.3799  126.6598   83.0323 H   0  0  0  0  0  0  0  0  0  0  0  0
  122.8266  125.7386   84.4933 H   0  0  0  0  0  0  0  0  0  0  0  0
  125.1971  122.3948   85.3847 H   0  0  0  0  0  0  0  0  0  0  0  0
  1  2  1  0
  2  3  2  0
  3  4  1  0
  4  5  2  0
  5  6  1  0
  6  7  2  3
  7  8  1  0
  7  9  1  0
  9 10  2  3
 10 11  1  0
 10 12  1  0
  5 13  1  0
 13 14  2  0
 14 15  1  0
 14  2  1  0
  1 16  1  0
  1 17  1  0
  1 18  1  0
  3 19  1  0
  4 20  1  0
  8 21  1  0
  8 22  1  0
 11 23  1  0
 11 24  1  0
 12 25  1  0
 12 26  1  0
 13 27  1  0
M  END
>  <loss>  (14) 
0.6567440032958984

>  <score>  (14) 
2.9715428352355957

$$$$
LIIRNJNGOKYCIP-UHFFFAOYSA-N
     RDKit          3D

 27 27  0  0  0  0  0  0  0  0999 V2000
  125.1176  121.6088   89.8054 C   0  0  0  0  0  0  0  0  0  0  0  0
  124.3618  121.7418   88.5139 C   0  0  0  0  0  0  0  0  0  0  0  0
  122.9611  121.7993   88.5354 C   0  0  0  0  0  0  0  0  0  0  0  0
  122.2368  121.9250   87.3469 C   0  0  0  0  0  0  0  0  0  0  0  0
  122.8931  122.0111   86.1168 C   0  0  0  0  0  0  0  0  0  0  0  0
  122.1878  122.1079   84.9077 N   0  0  0  0  0  0  0  0  0  0  0  0
  121.8529  123.2683   84.4272 C   0  0  0  0  0  0  0  0  0  0  0  0
  121.1161  123.3090   83.2887 N   0  0  0  0  0  0  0  0  0  0  0  0
  122.1594  124.4506   85.0275 N   0  0  0  0  0  0  0  0  0  0  0  0
  121.7682  125.5363   84.4565 C   0  0  0  0  0  0  0  0  0  0  0  0
  122.0480  126.7393   85.0098 N   0  0  0  0  0  0  0  0  0  0  0  0
  121.0594  125.7133   83.3159 N   0  0  0  0  0  0  0  0  0  0  0  0
  124.2851  121.9271   86.0870 C   0  0  0  0  0  0  0  0  0  0  0  0
  125.0141  121.8033   87.2729 C   0  0  0  0  0  0  0  0  0  0  0  0
  126.7372  121.7290   87.1550 Cl  0  0  0  0  0  0  0  0  0  0  0  0
  124.4240  121.7308   90.6504 H   0  0  0  0  0  0  0  0  0  0  0  0
  125.5855  120.6145   89.8557 H   0  0  0  0  0  0  0  0  0  0  0  0
  125.8967  122.3836   89.8557 H   0  0  0  0  0  0  0  0  0  0  0  0
  122.4278  121.7450   89.4959 H   0  0  0  0  0  0  0  0  0  0  0  0
  121.1378  121.9566   87.3805 H   0  0  0  0  0  0  0  0  0  0  0  0
  120.8378  124.2159   82.8876 H   0  0  0  0  0  0  0  0  0  0  0  0
  120.8351  122.4330   82.8256 H   0  0  0  0  0  0  0  0  0  0  0  0
  121.7324  127.6044   84.5483 H   0  0  0  0  0  0  0  0  0  0  0  0
  122.5766  126.7899   85.8924 H   0  0  0  0  0  0  0  0  0  0  0  0
  120.8277  126.6646   82.9960 H   0  0  0  0  0  0  0  0  0  0  0  0
  120.7521  124.8967   82.7686 H   0  0  0  0  0  0  0  0  0  0  0  0
  124.8132  121.9587   85.1225 H   0  0  0  0  0  0  0  0  0  0  0  0
  1  2  1  0
  2  3  2  0
  3  4  1  0
  4  5  2  0
  5  6  1  0
  6  7  2  3
  7  8  1  0
  7  9  1  0
  9 10  2  3
 10 11  1  0
 10 12  1  0
  5 13  1  0
 13 14  2  0
 14 15  1  0
 14  2  1  0
  1 16  1  0
  1 17  1  0
  1 18  1  0
  3 19  1  0
  4 20  1  0
  8 21  1  0
  8 22  1  0
 11 23  1  0
 11 24  1  0
 12 25  1  0
 12 26  1  0
 13 27  1  0
M  END
>  <loss>  (15) 
0.5935404896736145

>  <score>  (15) 
2.651304006576538

$$$$
LIIRNJNGOKYCIP-UHFFFAOYSA-N
     RDKit          3D

 27 27  0  0  0  0  0  0  0  0999 V2000
  125.2056  121.7637   89.6594 C   0  0  0  0  0  0  0  0  0  0  0  0
  124.3844  121.8491   88.4044 C   0  0  0  0  0  0  0  0  0  0  0  0
  122.9879  121.9321   88.4964 C   0  0  0  0  0  0  0  0  0  0  0  0
  122.2033  122.0146   87.3428 C   0  0  0  0  0  0  0  0  0  0  0  0
  122.7946  122.0313   86.0773 C   0  0  0  0  0  0  0  0  0  0  0  0
  122.0276  122.0837   84.9036 N   0  0  0  0  0  0  0  0  0  0  0  0
  121.6364  123.2242   84.4181 C   0  0  0  0  0  0  0  0  0  0  0  0
  120.8430  123.2210   83.3176 N   0  0  0  0  0  0  0  0  0  0  0  0
  121.9387  124.4266   84.9792 N   0  0  0  0  0  0  0  0  0  0  0  0
  121.5756  125.4923   84.3543 C   0  0  0  0  0  0  0  0  0  0  0  0
  121.8528  126.7138   84.8668 N   0  0  0  0  0  0  0  0  0  0  0  0
  120.9013  125.6301   83.1877 N   0  0  0  0  0  0  0  0  0  0  0  0
  124.1816  121.9217   85.9787 C   0  0  0  0  0  0  0  0  0  0  0  0
  124.9706  121.8409   87.1293 C   0  0  0  0  0  0  0  0  0  0  0  0
  126.6838  121.7310   86.9250 Cl  0  0  0  0  0  0  0  0  0  0  0  0
  124.5444  121.8325   90.5357 H   0  0  0  0  0  0  0  0  0  0  0  0
  125.7440  120.8047   89.6807 H   0  0  0  0  0  0  0  0  0  0  0  0
  125.9299  122.5913   89.6807 H   0  0  0  0  0  0  0  0  0  0  0  0
  122.5056  121.9323   89.4850 H   0  0  0  0  0  0  0  0  0  0  0  0
  121.1082  122.0670   87.4323 H   0  0  0  0  0  0  0  0  0  0  0  0
  120.5195  124.1115   82.9134 H   0  0  0  0  0  0  0  0  0  0  0  0
  120.5643  122.3282   82.8862 H   0  0  0  0  0  0  0  0  0  0  0  0
  121.5598  127.5626   84.3622 H   0  0  0  0  0  0  0  0  0  0  0  0
  122.3568  126.7947   85.7614 H   0  0  0  0  0  0  0  0  0  0  0  0
  120.6890  126.5699   82.8234 H   0  0  0  0  0  0  0  0  0  0  0  0
  120.6007  124.7951   82.6648 H   0  0  0  0  0  0  0  0  0  0  0  0
  124.6581  121.8986   84.9875 H   0  0  0  0  0  0  0  0  0  0  0  0
  1  2  1  0
  2  3  2  0
  3  4  1  0
  4  5  2  0
  5  6  1  0
  6  7  2  3
  7  8  1  0
  7  9  1  0
  9 10  2  3
 10 11  1  0
 10 12  1  0
  5 13  1  0
 13 14  2  0
 14 15  1  0
 14  2  1  0
  1 16  1  0
  1 17  1  0
  1 18  1  0
  3 19  1  0
  4 20  1  0
  8 21  1  0
  8 22  1  0
 11 23  1  0
 11 24  1  0
 12 25  1  0
 12 26  1  0
 13 27  1  0
M  END
>  <loss>  (16) 
0.57182776927948

>  <score>  (16) 
2.5423409938812256

$$$$
LIIRNJNGOKYCIP-UHFFFAOYSA-N
     RDKit          3D

 27 27  0  0  0  0  0  0  0  0999 V2000
  126.1465  121.8461   88.6270 C   0  0  0  0  0  0  0  0  0  0  0  0
  124.9510  121.9351   87.7214 C   0  0  0  0  0  0  0  0  0  0  0  0
  125.1391  122.0421   86.3361 C   0  0  0  0  0  0  0  0  0  0  0  0
  124.0416  122.1258   85.4752 C   0  0  0  0  0  0  0  0  0  0  0  0
  122.7383  122.1186   85.9757 C   0  0  0  0  0  0  0  0  0  0  0  0
  121.6658  122.1731   85.0721 N   0  0  0  0  0  0  0  0  0  0  0  0
  121.3969  123.2637   84.4181 C   0  0  0  0  0  0  0  0  0  0  0  0
  120.3082  123.2812   83.6089 N   0  0  0  0  0  0  0  0  0  0  0  0
  122.1187  124.4116   84.5332 N   0  0  0  0  0  0  0  0  0  0  0  0
  121.6581  125.4744   83.9711 C   0  0  0  0  0  0  0  0  0  0  0  0
  120.5199  125.6590   83.2604 N   0  0  0  0  0  0  0  0  0  0  0  0
  122.3384  126.6414   84.0530 N   0  0  0  0  0  0  0  0  0  0  0  0
  122.5446  121.9831   87.3520 C   0  0  0  0  0  0  0  0  0  0  0  0
  123.6383  121.9022   88.2180 C   0  0  0  0  0  0  0  0  0  0  0  0
  123.3195  121.7549   89.9108 Cl  0  0  0  0  0  0  0  0  0  0  0  0
  125.8148  121.8708   89.6755 H   0  0  0  0  0  0  0  0  0  0  0  0
  126.6833  120.9055   88.4342 H   0  0  0  0  0  0  0  0  0  0  0  0
  126.8166  122.6968   88.4342 H   0  0  0  0  0  0  0  0  0  0  0  0
  126.1587  122.0604   85.9238 H   0  0  0  0  0  0  0  0  0  0  0  0
  124.2065  122.1982   84.3900 H   0  0  0  0  0  0  0  0  0  0  0  0
  120.0734  124.1331   83.0797 H   0  0  0  0  0  0  0  0  0  0  0  0
  119.7163  122.4425   83.5236 H   0  0  0  0  0  0  0  0  0  0  0  0
  120.2988  126.5879   82.8743 H   0  0  0  0  0  0  0  0  0  0  0  0
  119.8755  124.8704   83.1061 H   0  0  0  0  0  0  0  0  0  0  0  0
  121.9647  127.4882   83.6012 H   0  0  0  0  0  0  0  0  0  0  0  0
  123.2300  126.6828   84.5671 H   0  0  0  0  0  0  0  0  0  0  0  0
  121.5231  121.9396   87.7577 H   0  0  0  0  0  0  0  0  0  0  0  0
  1  2  1  0
  2  3  2  0
  3  4  1  0
  4  5  2  0
  5  6  1  0
  6  7  2  3
  7  8  1  0
  7  9  1  0
  9 10  2  3
 10 11  1  0
 10 12  1  0
  5 13  1  0
 13 14  2  0
 14 15  1  0
 14  2  1  0
  1 16  1  0
  1 17  1  0
  1 18  1  0
  3 19  1  0
  4 20  1  0
  8 21  1  0
  8 22  1  0
 11 23  1  0
 11 24  1  0
 12 25  1  0
 12 26  1  0
 13 27  1  0
M  END
>  <loss>  (17) 
0.5967309474945068

>  <score>  (17) 
2.477583646774292

$$$$
LIIRNJNGOKYCIP-UHFFFAOYSA-N
     RDKit          3D

 27 27  0  0  0  0  0  0  0  0999 V2000
  126.0803  121.6845   89.0539 C   0  0  0  0  0  0  0  0  0  0  0  0
  124.9725  121.8096   88.0468 C   0  0  0  0  0  0  0  0  0  0  0  0
  125.2822  121.8568   86.6802 C   0  0  0  0  0  0  0  0  0  0  0  0
  124.2678  121.9725   85.7261 C   0  0  0  0  0  0  0  0  0  0  0  0
  122.9290  122.0574   86.1129 C   0  0  0  0  0  0  0  0  0  0  0  0
  121.9413  122.1412   85.1194 N   0  0  0  0  0  0  0  0  0  0  0  0
  121.7487  123.2440   84.4590 C   0  0  0  0  0  0  0  0  0  0  0  0
  120.7358  123.2899   83.5576 N   0  0  0  0  0  0  0  0  0  0  0  0
  122.4758  124.3779   84.6525 N   0  0  0  0  0  0  0  0  0  0  0  0
  122.0406  125.4717   84.1312 C   0  0  0  0  0  0  0  0  0  0  0  0
  120.9255  125.7022   83.3976 N   0  0  0  0  0  0  0  0  0  0  0  0
  122.7274  126.6267   84.2912 N   0  0  0  0  0  0  0  0  0  0  0  0
  122.6128  121.9819   87.4711 C   0  0  0  0  0  0  0  0  0  0  0  0
  123.6232  121.8694   88.4297 C   0  0  0  0  0  0  0  0  0  0  0  0
  123.1553  121.8004   90.0927 Cl  0  0  0  0  0  0  0  0  0  0  0  0
  125.6599  121.7320   90.0693 H   0  0  0  0  0  0  0  0  0  0  0  0
  126.5953  120.7225   88.9150 H   0  0  0  0  0  0  0  0  0  0  0  0
  126.7969  122.5074   88.9150 H   0  0  0  0  0  0  0  0  0  0  0  0
  126.3321  121.8022   86.3565 H   0  0  0  0  0  0  0  0  0  0  0  0
  124.5272  121.9971   84.6574 H   0  0  0  0  0  0  0  0  0  0  0  0
  120.5623  124.1520   83.0214 H   0  0  0  0  0  0  0  0  0  0  0  0
  120.1404  122.4626   83.4094 H   0  0  0  0  0  0  0  0  0  0  0  0
  120.7233  126.6512   83.0521 H   0  0  0  0  0  0  0  0  0  0  0  0
  120.2797  124.9284   83.1852 H   0  0  0  0  0  0  0  0  0  0  0  0
  122.3740  127.4984   83.8716 H   0  0  0  0  0  0  0  0  0  0  0  0
  123.6036  126.6340   84.8326 H   0  0  0  0  0  0  0  0  0  0  0  0
  121.5601  122.0113   87.7887 H   0  0  0  0  0  0  0  0  0  0  0  0
  1  2  1  0
  2  3  2  0
  3  4  1  0
  4  5  2  0
  5  6  1  0
  6  7  2  3
  7  8  1  0
  7  9  1  0
  9 10  2  3
 10 11  1  0
 10 12  1  0
  5 13  1  0
 13 14  2  0
 14 15  1  0
 14  2  1  0
  1 16  1  0
  1 17  1  0
  1 18  1  0
  3 19  1  0
  4 20  1  0
  8 21  1  0
  8 22  1  0
 11 23  1  0
 11 24  1  0
 12 25  1  0
 12 26  1  0
 13 27  1  0
M  END
>  <loss>  (18) 
0.6111308932304382

>  <score>  (18) 
2.509807825088501

$$$$
LIIRNJNGOKYCIP-UHFFFAOYSA-N
     RDKit          3D

 27 27  0  0  0  0  0  0  0  0999 V2000
  125.8908  120.9897   89.5138 C   0  0  0  0  0  0  0  0  0  0  0  0
  124.8879  121.3952   88.4705 C   0  0  0  0  0  0  0  0  0  0  0  0
  125.3118  121.5991   87.1489 C   0  0  0  0  0  0  0  0  0  0  0  0
  124.3991  121.9771   86.1610 C   0  0  0  0  0  0  0  0  0  0  0  0
  123.0535  122.1765   86.4772 C   0  0  0  0  0  0  0  0  0  0  0  0
  122.1286  122.5361   85.4891 N   0  0  0  0  0  0  0  0  0  0  0  0
  122.1149  123.7506   85.0324 C   0  0  0  0  0  0  0  0  0  0  0  0
  122.9089  124.7756   85.4486 N   0  0  0  0  0  0  0  0  0  0  0  0
  121.1985  124.0953   84.0792 N   0  0  0  0  0  0  0  0  0  0  0  0
  121.0655  123.4046   83.0010 C   0  0  0  0  0  0  0  0  0  0  0  0
  121.7329  122.3006   82.5893 N   0  0  0  0  0  0  0  0  0  0  0  0
  120.1534  123.7601   82.0653 N   0  0  0  0  0  0  0  0  0  0  0  0
  122.6208  121.9620   87.7851 C   0  0  0  0  0  0  0  0  0  0  0  0
  123.5304  121.5831   88.7759 C   0  0  0  0  0  0  0  0  0  0  0  0
  122.9278  121.3619   90.3807 Cl  0  0  0  0  0  0  0  0  0  0  0  0
  125.4680  121.1606   90.5148 H   0  0  0  0  0  0  0  0  0  0  0  0
  126.1325  119.9232   89.3951 H   0  0  0  0  0  0  0  0  0  0  0  0
  126.8058  121.5885   89.3951 H   0  0  0  0  0  0  0  0  0  0  0  0
  126.3714  121.4602   86.8883 H   0  0  0  0  0  0  0  0  0  0  0  0
  124.7431  122.1189   85.1259 H   0  0  0  0  0  0  0  0  0  0  0  0
  122.8166  125.7064   85.0173 H   0  0  0  0  0  0  0  0  0  0  0  0
  123.6018  124.6201   86.1947 H   0  0  0  0  0  0  0  0  0  0  0  0
  121.4993  121.8647   81.6858 H   0  0  0  0  0  0  0  0  0  0  0  0
  122.4741  121.8969   83.1796 H   0  0  0  0  0  0  0  0  0  0  0  0
  120.0534  123.2020   81.2054 H   0  0  0  0  0  0  0  0  0  0  0  0
  119.5597  124.5886   82.2135 H   0  0  0  0  0  0  0  0  0  0  0  0
  121.5582  122.0918   88.0383 H   0  0  0  0  0  0  0  0  0  0  0  0
  1  2  1  0
  2  3  2  0
  3  4  1  0
  4  5  2  0
  5  6  1  0
  6  7  2  3
  7  8  1  0
  7  9  1  0
  9 10  2  3
 10 11  1  0
 10 12  1  0
  5 13  1  0
 13 14  2  0
 14 15  1  0
 14  2  1  0
  1 16  1  0
  1 17  1  0
  1 18  1  0
  3 19  1  0
  4 20  1  0
  8 21  1  0
  8 22  1  0
 11 23  1  0
 11 24  1  0
 12 25  1  0
 12 26  1  0
 13 27  1  0
M  END
>  <loss>  (19) 
0.7125863432884216

>  <score>  (19) 
2.749504804611206

$$$$
LIIRNJNGOKYCIP-UHFFFAOYSA-N
     RDKit          3D

 27 27  0  0  0  0  0  0  0  0999 V2000
  125.9398  121.0065   89.4843 C   0  0  0  0  0  0  0  0  0  0  0  0
  124.9243  121.4043   88.4507 C   0  0  0  0  0  0  0  0  0  0  0  0
  125.3341  121.6139   87.1257 C   0  0  0  0  0  0  0  0  0  0  0  0
  124.4098  121.9875   86.1473 C   0  0  0  0  0  0  0  0  0  0  0  0
  123.0652  122.1718   86.4747 C   0  0  0  0  0  0  0  0  0  0  0  0
  122.1289  122.5218   85.4938 N   0  0  0  0  0  0  0  0  0  0  0  0
  122.0568  123.7504   85.0801 C   0  0  0  0  0  0  0  0  0  0  0  0
  122.7877  124.7999   85.5477 N   0  0  0  0  0  0  0  0  0  0  0  0
  121.1379  124.0817   84.1248 N   0  0  0  0  0  0  0  0  0  0  0  0
  121.0967  123.4652   82.9953 C   0  0  0  0  0  0  0  0  0  0  0  0
  120.1859  123.8139   82.0558 N   0  0  0  0  0  0  0  0  0  0  0  0
  121.8705  122.4581   82.5252 N   0  0  0  0  0  0  0  0  0  0  0  0
  122.6461  121.9514   87.7861 C   0  0  0  0  0  0  0  0  0  0  0  0
  123.5677  121.5782   88.7683 C   0  0  0  0  0  0  0  0  0  0  0  0
  122.9811  121.3427   90.3768 Cl  0  0  0  0  0  0  0  0  0  0  0  0
  125.5234  121.1696   90.4892 H   0  0  0  0  0  0  0  0  0  0  0  0
  126.1922  119.9430   89.3601 H   0  0  0  0  0  0  0  0  0  0  0  0
  126.8473  121.6156   89.3601 H   0  0  0  0  0  0  0  0  0  0  0  0
  126.3921  121.4830   86.8548 H   0  0  0  0  0  0  0  0  0  0  0  0
  124.7442  122.1378   85.1102 H   0  0  0  0  0  0  0  0  0  0  0  0
  122.6528  125.7398   85.1486 H   0  0  0  0  0  0  0  0  0  0  0  0
  123.4754  124.6538   86.3004 H   0  0  0  0  0  0  0  0  0  0  0  0
  120.1592  123.3160   81.1546 H   0  0  0  0  0  0  0  0  0  0  0  0
  119.5200  124.5772   82.2425 H   0  0  0  0  0  0  0  0  0  0  0  0
  121.7003  122.0738   81.5848 H   0  0  0  0  0  0  0  0  0  0  0  0
  122.6293  122.0765   83.1079 H   0  0  0  0  0  0  0  0  0  0  0  0
  121.5848  122.0718   88.0490 H   0  0  0  0  0  0  0  0  0  0  0  0
  1  2  1  0
  2  3  2  0
  3  4  1  0
  4  5  2  0
  5  6  1  0
  6  7  2  3
  7  8  1  0
  7  9  1  0
  9 10  2  3
 10 11  1  0
 10 12  1  0
  5 13  1  0
 13 14  2  0
 14 15  1  0
 14  2  1  0
  1 16  1  0
  1 17  1  0
  1 18  1  0
  3 19  1  0
  4 20  1  0
  8 21  1  0
  8 22  1  0
 11 23  1  0
 11 24  1  0
 12 25  1  0
 12 26  1  0
 13 27  1  0
M  END
>  <loss>  (20) 
0.723115861415863

>  <score>  (20) 
2.800377368927002

$$$$
LIIRNJNGOKYCIP-UHFFFAOYSA-N
     RDKit          3D

 27 27  0  0  0  0  0  0  0  0999 V2000
  125.8120  121.1411   89.4015 C   0  0  0  0  0  0  0  0  0  0  0  0
  124.9325  121.5209   88.2435 C   0  0  0  0  0  0  0  0  0  0  0  0
  125.5166  121.8276   87.0055 C   0  0  0  0  0  0  0  0  0  0  0  0
  124.7207  122.1842   85.9140 C   0  0  0  0  0  0  0  0  0  0  0  0
  123.3322  122.2595   86.0430 C   0  0  0  0  0  0  0  0  0  0  0  0
  122.5260  122.5968   84.9488 N   0  0  0  0  0  0  0  0  0  0  0  0
  121.6485  123.5457   85.0648 C   0  0  0  0  0  0  0  0  0  0  0  0
  121.3818  124.2615   86.1921 N   0  0  0  0  0  0  0  0  0  0  0  0
  120.8563  123.8570   83.9958 N   0  0  0  0  0  0  0  0  0  0  0  0
  121.1179  124.8686   83.2437 C   0  0  0  0  0  0  0  0  0  0  0  0
  122.1206  125.7750   83.3256 N   0  0  0  0  0  0  0  0  0  0  0  0
  120.3222  125.1645   82.1887 N   0  0  0  0  0  0  0  0  0  0  0  0
  122.7423  121.9424   87.2658 C   0  0  0  0  0  0  0  0  0  0  0  0
  123.5347  121.5845   88.3597 C   0  0  0  0  0  0  0  0  0  0  0  0
  122.7365  121.2315   89.8516 Cl  0  0  0  0  0  0  0  0  0  0  0  0
  125.2929  121.3653   90.3451 H   0  0  0  0  0  0  0  0  0  0  0  0
  126.0373  120.0655   89.3535 H   0  0  0  0  0  0  0  0  0  0  0  0
  126.7494  121.7146   89.3535 H   0  0  0  0  0  0  0  0  0  0  0  0
  126.6101  121.7869   86.8932 H   0  0  0  0  0  0  0  0  0  0  0  0
  125.1916  122.4075   84.9453 H   0  0  0  0  0  0  0  0  0  0  0  0
  120.6612  124.9973   86.1765 H   0  0  0  0  0  0  0  0  0  0  0  0
  121.9006  124.0670   87.0604 H   0  0  0  0  0  0  0  0  0  0  0  0
  122.1863  126.5343   82.6327 H   0  0  0  0  0  0  0  0  0  0  0  0
  122.8175  125.7052   84.0808 H   0  0  0  0  0  0  0  0  0  0  0  0
  120.5386  125.9757   81.5920 H   0  0  0  0  0  0  0  0  0  0  0  0
  119.5006  124.5784   81.9829 H   0  0  0  0  0  0  0  0  0  0  0  0
  121.6477  121.9741   87.3699 H   0  0  0  0  0  0  0  0  0  0  0  0
  1  2  1  0
  2  3  2  0
  3  4  1  0
  4  5  2  0
  5  6  1  0
  6  7  2  3
  7  8  1  0
  7  9  1  0
  9 10  2  3
 10 11  1  0
 10 12  1  0
  5 13  1  0
 13 14  2  0
 14 15  1  0
 14  2  1  0
  1 16  1  0
  1 17  1  0
  1 18  1  0
  3 19  1  0
  4 20  1  0
  8 21  1  0
  8 22  1  0
 11 23  1  0
 11 24  1  0
 12 25  1  0
 12 26  1  0
 13 27  1  0
M  END
>  <loss>  (21) 
0.721718430519104

>  <score>  (21) 
2.7380707263946533

$$$$
LIIRNJNGOKYCIP-UHFFFAOYSA-N
     RDKit          3D

 27 27  0  0  0  0  0  0  0  0999 V2000
  125.3957  120.5232   89.1175 C   0  0  0  0  0  0  0  0  0  0  0  0
  124.6300  121.2953   88.0803 C   0  0  0  0  0  0  0  0  0  0  0  0
  125.2384  121.5936   86.8522 C   0  0  0  0  0  0  0  0  0  0  0  0
  124.5477  122.3122   85.8735 C   0  0  0  0  0  0  0  0  0  0  0  0
  123.2364  122.7352   86.0969 C   0  0  0  0  0  0  0  0  0  0  0  0
  122.5466  123.4743   85.1279 N   0  0  0  0  0  0  0  0  0  0  0  0
  121.6270  122.9002   84.4130 C   0  0  0  0  0  0  0  0  0  0  0  0
  121.2230  121.6043   84.5235 N   0  0  0  0  0  0  0  0  0  0  0  0
  120.9678  123.6130   83.4506 N   0  0  0  0  0  0  0  0  0  0  0  0
  121.0207  124.8973   83.3883 C   0  0  0  0  0  0  0  0  0  0  0  0
  120.3644  125.5630   82.4089 N   0  0  0  0  0  0  0  0  0  0  0  0
  121.6463  125.7844   84.1967 N   0  0  0  0  0  0  0  0  0  0  0  0
  122.6297  122.4590   87.3217 C   0  0  0  0  0  0  0  0  0  0  0  0
  123.3175  121.7410   88.3038 C   0  0  0  0  0  0  0  0  0  0  0  0
  122.4985  121.4227   89.7920 Cl  0  0  0  0  0  0  0  0  0  0  0  0
  125.0785  120.8430   90.1210 H   0  0  0  0  0  0  0  0  0  0  0  0
  125.1969  119.4482   88.9953 H   0  0  0  0  0  0  0  0  0  0  0  0
  126.4723  120.7132   88.9953 H   0  0  0  0  0  0  0  0  0  0  0  0
  126.2681  121.2589   86.6582 H   0  0  0  0  0  0  0  0  0  0  0  0
  125.0412  122.5467   84.9188 H   0  0  0  0  0  0  0  0  0  0  0  0
  120.4820  121.2414   83.9069 H   0  0  0  0  0  0  0  0  0  0  0  0
  121.6585  120.9870   85.2237 H   0  0  0  0  0  0  0  0  0  0  0  0
  120.4109  126.5910   82.3646 H   0  0  0  0  0  0  0  0  0  0  0  0
  119.8188  125.0415   81.7080 H   0  0  0  0  0  0  0  0  0  0  0  0
  121.5850  126.7934   83.9991 H   0  0  0  0  0  0  0  0  0  0  0  0
  122.1835  125.4505   85.0096 H   0  0  0  0  0  0  0  0  0  0  0  0
  121.6048  122.8080   87.5159 H   0  0  0  0  0  0  0  0  0  0  0  0
  1  2  1  0
  2  3  2  0
  3  4  1  0
  4  5  2  0
  5  6  1  0
  6  7  2  3
  7  8  1  0
  7  9  1  0
  9 10  2  3
 10 11  1  0
 10 12  1  0
  5 13  1  0
 13 14  2  0
 14 15  1  0
 14  2  1  0
  1 16  1  0
  1 17  1  0
  1 18  1  0
  3 19  1  0
  4 20  1  0
  8 21  1  0
  8 22  1  0
 11 23  1  0
 11 24  1  0
 12 25  1  0
 12 26  1  0
 13 27  1  0
M  END
>  <loss>  (22) 
0.723458468914032

>  <score>  (22) 
2.3937528133392334

$$$$
LIIRNJNGOKYCIP-UHFFFAOYSA-N
     RDKit          3D

 27 27  0  0  0  0  0  0  0  0999 V2000
  125.2117  120.5000   89.5586 C   0  0  0  0  0  0  0  0  0  0  0  0
  124.5561  121.2505   88.4337 C   0  0  0  0  0  0  0  0  0  0  0  0
  125.2581  121.4526   87.2364 C   0  0  0  0  0  0  0  0  0  0  0  0
  124.6708  122.1493   86.1777 C   0  0  0  0  0  0  0  0  0  0  0  0
  123.3711  122.6460   86.2895 C   0  0  0  0  0  0  0  0  0  0  0  0
  122.7851  123.3637   85.2395 N   0  0  0  0  0  0  0  0  0  0  0  0
  121.9660  122.7658   84.4283 C   0  0  0  0  0  0  0  0  0  0  0  0
  121.5764  121.4630   84.5040 N   0  0  0  0  0  0  0  0  0  0  0  0
  121.4101  123.4578   83.3886 N   0  0  0  0  0  0  0  0  0  0  0  0
  121.2825  124.7383   83.4045 C   0  0  0  0  0  0  0  0  0  0  0  0
  120.7397  125.3857   82.3464 N   0  0  0  0  0  0  0  0  0  0  0  0
  121.5979  125.6340   84.3689 N   0  0  0  0  0  0  0  0  0  0  0  0
  122.6721  122.4658   87.4826 C   0  0  0  0  0  0  0  0  0  0  0  0
  123.2564  121.7699   88.5444 C   0  0  0  0  0  0  0  0  0  0  0  0
  122.3264  121.5720   89.9876 Cl  0  0  0  0  0  0  0  0  0  0  0  0
  124.8610  120.9015   90.5207 H   0  0  0  0  0  0  0  0  0  0  0  0
  124.9506  119.4337   89.4891 H   0  0  0  0  0  0  0  0  0  0  0  0
  126.3034  120.6155   89.4891 H   0  0  0  0  0  0  0  0  0  0  0  0
  126.2798  121.0590   87.1301 H   0  0  0  0  0  0  0  0  0  0  0  0
  125.2372  122.3079   85.2481 H   0  0  0  0  0  0  0  0  0  0  0  0
  120.9192  121.0807   83.8090 H   0  0  0  0  0  0  0  0  0  0  0  0
  121.9389  120.8599   85.2562 H   0  0  0  0  0  0  0  0  0  0  0  0
  120.6404  126.4107   82.3655 H   0  0  0  0  0  0  0  0  0  0  0  0
  120.4261  124.8531   81.5225 H   0  0  0  0  0  0  0  0  0  0  0  0
  121.4272  126.6381   84.2149 H   0  0  0  0  0  0  0  0  0  0  0  0
  122.0087  125.3117   85.2567 H   0  0  0  0  0  0  0  0  0  0  0  0
  121.6559  122.8733   87.5885 H   0  0  0  0  0  0  0  0  0  0  0  0
  1  2  1  0
  2  3  2  0
  3  4  1  0
  4  5  2  0
  5  6  1  0
  6  7  2  3
  7  8  1  0
  7  9  1  0
  9 10  2  3
 10 11  1  0
 10 12  1  0
  5 13  1  0
 13 14  2  0
 14 15  1  0
 14  2  1  0
  1 16  1  0
  1 17  1  0
  1 18  1  0
  3 19  1  0
  4 20  1  0
  8 21  1  0
  8 22  1  0
 11 23  1  0
 11 24  1  0
 12 25  1  0
 12 26  1  0
 13 27  1  0
M  END
>  <loss>  (23) 
0.7409271597862244

>  <score>  (23) 
2.344189405441284

$$$$
LIIRNJNGOKYCIP-UHFFFAOYSA-N
     RDKit          3D

 27 27  0  0  0  0  0  0  0  0999 V2000
  127.2642  121.7889   88.3650 C   0  0  0  0  0  0  0  0  0  0  0  0
  125.8431  121.7560   87.8785 C   0  0  0  0  0  0  0  0  0  0  0  0
  125.4972  122.4437   86.7067 C   0  0  0  0  0  0  0  0  0  0  0  0
  124.1816  122.4263   86.2356 C   0  0  0  0  0  0  0  0  0  0  0  0
  123.1837  121.7373   86.9274 C   0  0  0  0  0  0  0  0  0  0  0  0
  121.8829  121.7210   86.4010 N   0  0  0  0  0  0  0  0  0  0  0  0
  120.9919  122.5826   86.7927 C   0  0  0  0  0  0  0  0  0  0  0  0
  119.7316  122.4788   86.3014 N   0  0  0  0  0  0  0  0  0  0  0  0
  121.2362  123.5596   87.7079 N   0  0  0  0  0  0  0  0  0  0  0  0
  120.2952  124.4016   87.9592 C   0  0  0  0  0  0  0  0  0  0  0  0
  119.0409  124.4806   87.4542 N   0  0  0  0  0  0  0  0  0  0  0  0
  120.4875  125.3941   88.8589 N   0  0  0  0  0  0  0  0  0  0  0  0
  123.5285  121.0269   88.0793 C   0  0  0  0  0  0  0  0  0  0  0  0
  124.8416  121.0433   88.5567 C   0  0  0  0  0  0  0  0  0  0  0  0
  125.1882  120.1554   89.9991 Cl  0  0  0  0  0  0  0  0  0  0  0  0
  127.2752  121.7891   89.4650 H   0  0  0  0  0  0  0  0  0  0  0  0
  127.7997  120.9029   87.9932 H   0  0  0  0  0  0  0  0  0  0  0  0
  127.7581  122.6987   87.9932 H   0  0  0  0  0  0  0  0  0  0  0  0
  126.2674  123.0013   86.1537 H   0  0  0  0  0  0  0  0  0  0  0  0
  123.9293  122.9620   85.3086 H   0  0  0  0  0  0  0  0  0  0  0  0
  119.0072  123.1491   86.5960 H   0  0  0  0  0  0  0  0  0  0  0  0
  119.4991  121.7297   85.6338 H   0  0  0  0  0  0  0  0  0  0  0  0
  118.4055  125.2282   87.7679 H   0  0  0  0  0  0  0  0  0  0  0  0
  118.7224  123.7932   86.7565 H   0  0  0  0  0  0  0  0  0  0  0  0
  119.7308  126.0647   89.0556 H   0  0  0  0  0  0  0  0  0  0  0  0
  121.3906  125.4790   89.3470 H   0  0  0  0  0  0  0  0  0  0  0  0
  122.7603  120.4499   88.6149 H   0  0  0  0  0  0  0  0  0  0  0  0
  1  2  1  0
  2  3  2  0
  3  4  1  0
  4  5  2  0
  5  6  1  0
  6  7  2  3
  7  8  1  0
  7  9  1  0
  9 10  2  3
 10 11  1  0
 10 12  1  0
  5 13  1  0
 13 14  2  0
 14 15  1  0
 14  2  1  0
  1 16  1  0
  1 17  1  0
  1 18  1  0
  3 19  1  0
  4 20  1  0
  8 21  1  0
  8 22  1  0
 11 23  1  0
 11 24  1  0
 12 25  1  0
 12 26  1  0
 13 27  1  0
M  END
>  <loss>  (24) 
0.706315815448761

>  <score>  (24) 
-1.0485596656799316

$$$$
LIIRNJNGOKYCIP-UHFFFAOYSA-N
     RDKit          3D

 27 27  0  0  0  0  0  0  0  0999 V2000
  127.2400  121.8014   88.4177 C   0  0  0  0  0  0  0  0  0  0  0  0
  125.8231  121.7663   87.9193 C   0  0  0  0  0  0  0  0  0  0  0  0
  125.4901  122.4365   86.7337 C   0  0  0  0  0  0  0  0  0  0  0  0
  124.1786  122.4168   86.2515 C   0  0  0  0  0  0  0  0  0  0  0  0
  123.1720  121.7428   86.9455 C   0  0  0  0  0  0  0  0  0  0  0  0
  121.8757  121.7232   86.4080 N   0  0  0  0  0  0  0  0  0  0  0  0
  120.9780  122.5797   86.7954 C   0  0  0  0  0  0  0  0  0  0  0  0
  119.7222  122.4726   86.2931 N   0  0  0  0  0  0  0  0  0  0  0  0
  121.2105  123.5542   87.7163 N   0  0  0  0  0  0  0  0  0  0  0  0
  120.2579  124.3804   87.9760 C   0  0  0  0  0  0  0  0  0  0  0  0
  119.0008  124.4439   87.4755 N   0  0  0  0  0  0  0  0  0  0  0  0
  120.4381  125.3698   88.8816 N   0  0  0  0  0  0  0  0  0  0  0  0
  123.5039  121.0496   88.1115 C   0  0  0  0  0  0  0  0  0  0  0  0
  124.8129  121.0685   88.6000 C   0  0  0  0  0  0  0  0  0  0  0  0
  125.1434  120.2024   90.0594 Cl  0  0  0  0  0  0  0  0  0  0  0  0
  127.2419  121.8015   89.5177 H   0  0  0  0  0  0  0  0  0  0  0  0
  127.7800  120.9164   88.0501 H   0  0  0  0  0  0  0  0  0  0  0  0
  127.7355  122.7121   88.0501 H   0  0  0  0  0  0  0  0  0  0  0  0
  126.2674  122.9822   86.1786 H   0  0  0  0  0  0  0  0  0  0  0  0
  123.9365  122.9386   85.3139 H   0  0  0  0  0  0  0  0  0  0  0  0
  118.9926  123.1388   86.5841 H   0  0  0  0  0  0  0  0  0  0  0  0
  119.4985  121.7250   85.6208 H   0  0  0  0  0  0  0  0  0  0  0  0
  118.3554  125.1798   87.7961 H   0  0  0  0  0  0  0  0  0  0  0  0
  118.6904  123.7563   86.7742 H   0  0  0  0  0  0  0  0  0  0  0  0
  119.6721  126.0276   89.0851 H   0  0  0  0  0  0  0  0  0  0  0  0
  121.3413  125.4649   89.3675 H   0  0  0  0  0  0  0  0  0  0  0  0
  122.7287  120.4843   88.6496 H   0  0  0  0  0  0  0  0  0  0  0  0
  1  2  1  0
  2  3  2  0
  3  4  1  0
  4  5  2  0
  5  6  1  0
  6  7  2  3
  7  8  1  0
  7  9  1  0
  9 10  2  3
 10 11  1  0
 10 12  1  0
  5 13  1  0
 13 14  2  0
 14 15  1  0
 14  2  1  0
  1 16  1  0
  1 17  1  0
  1 18  1  0
  3 19  1  0
  4 20  1  0
  8 21  1  0
  8 22  1  0
 11 23  1  0
 11 24  1  0
 12 25  1  0
 12 26  1  0
 13 27  1  0
M  END
>  <loss>  (25) 
0.7119439244270325

>  <score>  (25) 
-1.279402494430542

$$$$
