MKWFJPZMYHPQIA-UHFFFAOYSA-N
     RDKit          3D

 24 24  0  0  0  0  0  0  0  0999 V2000
  120.0536  121.2776   91.3368 N   0  0  0  0  0  0  0  0  0  0  0  0
  120.1937  122.2838   90.5478 C   0  0  0  0  0  0  0  0  0  0  0  0
  120.2744  123.5291   91.0585 N   0  0  0  0  0  0  0  0  0  0  0  0
  120.1390  122.1112   89.2066 N   0  0  0  0  0  0  0  0  0  0  0  0
  121.1375  121.6069   88.5562 C   0  0  0  0  0  0  0  0  0  0  0  0
  120.9316  121.3575   87.2306 N   0  0  0  0  0  0  0  0  0  0  0  0
  122.3847  121.2083   88.9416 N   0  0  0  0  0  0  0  0  0  0  0  0
  123.6176  121.5229   88.3106 C   0  0  0  0  0  0  0  0  0  0  0  0
  123.7215  122.4465   87.2629 C   0  0  0  0  0  0  0  0  0  0  0  0
  124.9604  122.7553   86.6904 C   0  0  0  0  0  0  0  0  0  0  0  0
  126.1219  122.1456   87.1567 C   0  0  0  0  0  0  0  0  0  0  0  0
  126.0464  121.2212   88.1952 C   0  0  0  0  0  0  0  0  0  0  0  0
  124.8071  120.9153   88.7656 C   0  0  0  0  0  0  0  0  0  0  0  0
  124.7671  119.7418   90.0401 Cl  0  0  0  0  0  0  0  0  0  0  0  0
  119.9917  120.3249   90.9503 H   0  0  0  0  0  0  0  0  0  0  0  0
  120.3866  124.3373   90.4298 H   0  0  0  0  0  0  0  0  0  0  0  0
  120.2238  123.6723   92.0772 H   0  0  0  0  0  0  0  0  0  0  0  0
  121.6883  120.9562   86.6585 H   0  0  0  0  0  0  0  0  0  0  0  0
  120.0196  121.5706   86.8020 H   0  0  0  0  0  0  0  0  0  0  0  0
  122.4376  120.6146   89.7817 H   0  0  0  0  0  0  0  0  0  0  0  0
  122.8134  122.9378   86.8836 H   0  0  0  0  0  0  0  0  0  0  0  0
  125.0169  123.4835   85.8678 H   0  0  0  0  0  0  0  0  0  0  0  0
  127.0947  122.3929   86.7067 H   0  0  0  0  0  0  0  0  0  0  0  0
  126.9596  120.7328   88.5661 H   0  0  0  0  0  0  0  0  0  0  0  0
  1  2  2  3
  2  3  1  0
  2  4  1  0
  4  5  2  3
  5  6  1  0
  5  7  1  0
  7  8  1  0
  8  9  2  0
  9 10  1  0
 10 11  2  0
 11 12  1  0
 12 13  2  0
 13 14  1  0
 13  8  1  0
  1 15  1  0
  3 16  1  0
  3 17  1  0
  6 18  1  0
  6 19  1  0
  7 20  1  0
  9 21  1  0
 10 22  1  0
 11 23  1  0
 12 24  1  0
M  END
>  <loss>  (1) 
0.7973604202270508

>  <score>  (1) 
2.8820571899414062

$$$$
MKWFJPZMYHPQIA-UHFFFAOYSA-N
     RDKit          3D

 24 24  0  0  0  0  0  0  0  0999 V2000
  121.3551  122.8769   91.6730 N   0  0  0  0  0  0  0  0  0  0  0  0
  120.7649  122.0891   90.8455 C   0  0  0  0  0  0  0  0  0  0  0  0
  119.5623  122.4062   90.3108 N   0  0  0  0  0  0  0  0  0  0  0  0
  121.3959  120.9209   90.5770 N   0  0  0  0  0  0  0  0  0  0  0  0
  122.0277  120.7444   89.4651 C   0  0  0  0  0  0  0  0  0  0  0  0
  122.5257  119.4958   89.2346 N   0  0  0  0  0  0  0  0  0  0  0  0
  122.2670  121.5716   88.4016 N   0  0  0  0  0  0  0  0  0  0  0  0
  123.5359  121.8011   87.7970 C   0  0  0  0  0  0  0  0  0  0  0  0
  124.7418  121.7022   88.5040 C   0  0  0  0  0  0  0  0  0  0  0  0
  125.9672  121.9638   87.8821 C   0  0  0  0  0  0  0  0  0  0  0  0
  126.0103  122.3274   86.5389 C   0  0  0  0  0  0  0  0  0  0  0  0
  124.8265  122.4270   85.8121 C   0  0  0  0  0  0  0  0  0  0  0  0
  123.6028  122.1662   86.4359 C   0  0  0  0  0  0  0  0  0  0  0  0
  122.1611  122.3014   85.4860 Cl  0  0  0  0  0  0  0  0  0  0  0  0
  122.2699  122.6168   92.0685 H   0  0  0  0  0  0  0  0  0  0  0  0
  119.1064  121.7613   89.6497 H   0  0  0  0  0  0  0  0  0  0  0  0
  119.1033  123.2925   90.5651 H   0  0  0  0  0  0  0  0  0  0  0  0
  123.0385  119.2986   88.3633 H   0  0  0  0  0  0  0  0  0  0  0  0
  122.3890  118.7500   89.9317 H   0  0  0  0  0  0  0  0  0  0  0  0
  121.4592  122.0717   88.0037 H   0  0  0  0  0  0  0  0  0  0  0  0
  124.7245  121.4141   89.5655 H   0  0  0  0  0  0  0  0  0  0  0  0
  126.9013  121.8818   88.4572 H   0  0  0  0  0  0  0  0  0  0  0  0
  126.9754  122.5351   86.0537 H   0  0  0  0  0  0  0  0  0  0  0  0
  124.8542  122.7101   84.7496 H   0  0  0  0  0  0  0  0  0  0  0  0
  1  2  2  3
  2  3  1  0
  2  4  1  0
  4  5  2  3
  5  6  1  0
  5  7  1  0
  7  8  1  0
  8  9  2  0
  9 10  1  0
 10 11  2  0
 11 12  1  0
 12 13  2  0
 13 14  1  0
 13  8  1  0
  1 15  1  0
  3 16  1  0
  3 17  1  0
  6 18  1  0
  6 19  1  0
  7 20  1  0
  9 21  1  0
 10 22  1  0
 11 23  1  0
 12 24  1  0
M  END
>  <loss>  (2) 
0.6945639252662659

>  <score>  (2) 
2.051586389541626

$$$$
MKWFJPZMYHPQIA-UHFFFAOYSA-N
     RDKit          3D

 24 24  0  0  0  0  0  0  0  0999 V2000
  120.1788  122.1328   90.9826 N   0  0  0  0  0  0  0  0  0  0  0  0
  120.6909  120.9816   90.7251 C   0  0  0  0  0  0  0  0  0  0  0  0
  119.9543  119.9968   90.1591 N   0  0  0  0  0  0  0  0  0  0  0  0
  121.9845  120.8072   91.0869 N   0  0  0  0  0  0  0  0  0  0  0  0
  122.9005  120.5901   90.2035 C   0  0  0  0  0  0  0  0  0  0  0  0
  124.1493  120.3058   90.6725 N   0  0  0  0  0  0  0  0  0  0  0  0
  122.8656  120.5330   88.8367 N   0  0  0  0  0  0  0  0  0  0  0  0
  123.5748  121.3938   87.9511 C   0  0  0  0  0  0  0  0  0  0  0  0
  122.9508  122.4208   87.2300 C   0  0  0  0  0  0  0  0  0  0  0  0
  123.6765  123.2273   86.3471 C   0  0  0  0  0  0  0  0  0  0  0  0
  125.0423  123.0236   86.1699 C   0  0  0  0  0  0  0  0  0  0  0  0
  125.6875  122.0136   86.8791 C   0  0  0  0  0  0  0  0  0  0  0  0
  124.9601  121.2079   87.7601 C   0  0  0  0  0  0  0  0  0  0  0  0
  125.8114  119.9685   88.6194 Cl  0  0  0  0  0  0  0  0  0  0  0  0
  120.7565  122.8687   91.4136 H   0  0  0  0  0  0  0  0  0  0  0  0
  120.3836  119.0817   89.9610 H   0  0  0  0  0  0  0  0  0  0  0  0
  118.9647  120.1626   89.9266 H   0  0  0  0  0  0  0  0  0  0  0  0
  124.9185  120.1240   90.0120 H   0  0  0  0  0  0  0  0  0  0  0  0
  124.3232  120.2728   91.6872 H   0  0  0  0  0  0  0  0  0  0  0  0
  122.2749  119.8042   88.4114 H   0  0  0  0  0  0  0  0  0  0  0  0
  121.8726  122.5956   87.3605 H   0  0  0  0  0  0  0  0  0  0  0  0
  123.1655  124.0264   85.7900 H   0  0  0  0  0  0  0  0  0  0  0  0
  125.6094  123.6579   85.4727 H   0  0  0  0  0  0  0  0  0  0  0  0
  126.7672  121.8501   86.7463 H   0  0  0  0  0  0  0  0  0  0  0  0
  1  2  2  3
  2  3  1  0
  2  4  1  0
  4  5  2  3
  5  6  1  0
  5  7  1  0
  7  8  1  0
  8  9  2  0
  9 10  1  0
 10 11  2  0
 11 12  1  0
 12 13  2  0
 13 14  1  0
 13  8  1  0
  1 15  1  0
  3 16  1  0
  3 17  1  0
  6 18  1  0
  6 19  1  0
  7 20  1  0
  9 21  1  0
 10 22  1  0
 11 23  1  0
 12 24  1  0
M  END
>  <loss>  (3) 
0.7978726029396057

>  <score>  (3) 
2.330609083175659

$$$$
MKWFJPZMYHPQIA-UHFFFAOYSA-N
     RDKit          3D

 24 24  0  0  0  0  0  0  0  0999 V2000
  120.1806  122.1285   90.9852 N   0  0  0  0  0  0  0  0  0  0  0  0
  120.6926  120.9778   90.7255 C   0  0  0  0  0  0  0  0  0  0  0  0
  119.9559  119.9939   90.1582 N   0  0  0  0  0  0  0  0  0  0  0  0
  121.9865  120.8029   91.0863 N   0  0  0  0  0  0  0  0  0  0  0  0
  122.9020  120.5867   90.2020 C   0  0  0  0  0  0  0  0  0  0  0  0
  124.1510  120.3018   90.6700 N   0  0  0  0  0  0  0  0  0  0  0  0
  122.8661  120.5311   88.8352 N   0  0  0  0  0  0  0  0  0  0  0  0
  123.5744  121.3931   87.9502 C   0  0  0  0  0  0  0  0  0  0  0  0
  122.9494  122.4200   87.2298 C   0  0  0  0  0  0  0  0  0  0  0  0
  123.6742  123.2278   86.3473 C   0  0  0  0  0  0  0  0  0  0  0  0
  125.0402  123.0255   86.1698 C   0  0  0  0  0  0  0  0  0  0  0  0
  125.6865  122.0156   86.8783 C   0  0  0  0  0  0  0  0  0  0  0  0
  124.9600  121.2086   87.7589 C   0  0  0  0  0  0  0  0  0  0  0  0
  125.8125  119.9695   88.6172 Cl  0  0  0  0  0  0  0  0  0  0  0  0
  120.7584  122.8637   91.4171 H   0  0  0  0  0  0  0  0  0  0  0  0
  120.3852  119.0792   89.9583 H   0  0  0  0  0  0  0  0  0  0  0  0
  118.9662  120.1599   89.9265 H   0  0  0  0  0  0  0  0  0  0  0  0
  124.9198  120.1207   90.0088 H   0  0  0  0  0  0  0  0  0  0  0  0
  124.3255  120.2677   91.6845 H   0  0  0  0  0  0  0  0  0  0  0  0
  122.2756  119.8025   88.4096 H   0  0  0  0  0  0  0  0  0  0  0  0
  121.8711  122.5937   87.3605 H   0  0  0  0  0  0  0  0  0  0  0  0
  123.1624  124.0268   85.7908 H   0  0  0  0  0  0  0  0  0  0  0  0
  125.6066  123.6607   85.4729 H   0  0  0  0  0  0  0  0  0  0  0  0
  126.7663  121.8532   86.7452 H   0  0  0  0  0  0  0  0  0  0  0  0
  1  2  2  3
  2  3  1  0
  2  4  1  0
  4  5  2  3
  5  6  1  0
  5  7  1  0
  7  8  1  0
  8  9  2  0
  9 10  1  0
 10 11  2  0
 11 12  1  0
 12 13  2  0
 13 14  1  0
 13  8  1  0
  1 15  1  0
  3 16  1  0
  3 17  1  0
  6 18  1  0
  6 19  1  0
  7 20  1  0
  9 21  1  0
 10 22  1  0
 11 23  1  0
 12 24  1  0
M  END
>  <loss>  (4) 
0.79787278175354

>  <score>  (4) 
2.33040452003479

$$$$
MKWFJPZMYHPQIA-UHFFFAOYSA-N
     RDKit          3D

 24 24  0  0  0  0  0  0  0  0999 V2000
  120.5846  122.1454   91.2691 N   0  0  0  0  0  0  0  0  0  0  0  0
  121.0574  121.0020   90.9186 C   0  0  0  0  0  0  0  0  0  0  0  0
  120.2455  120.0116   90.4798 N   0  0  0  0  0  0  0  0  0  0  0  0
  122.3958  120.8413   91.0516 N   0  0  0  0  0  0  0  0  0  0  0  0
  123.1505  120.6532   90.0211 C   0  0  0  0  0  0  0  0  0  0  0  0
  124.4643  120.3801   90.2653 N   0  0  0  0  0  0  0  0  0  0  0  0
  122.8839  120.6189   88.6794 N   0  0  0  0  0  0  0  0  0  0  0  0
  123.3859  121.5326   87.7092 C   0  0  0  0  0  0  0  0  0  0  0  0
  122.5761  122.4818   87.0709 C   0  0  0  0  0  0  0  0  0  0  0  0
  123.1002  123.3432   86.1014 C   0  0  0  0  0  0  0  0  0  0  0  0
  124.4463  123.2736   85.7529 C   0  0  0  0  0  0  0  0  0  0  0  0
  125.2739  122.3432   86.3767 C   0  0  0  0  0  0  0  0  0  0  0  0
  124.7478  121.4824   87.3445 C   0  0  0  0  0  0  0  0  0  0  0  0
  125.8206  120.3466   88.0915 Cl  0  0  0  0  0  0  0  0  0  0  0  0
  121.2195  122.8857   91.6002 H   0  0  0  0  0  0  0  0  0  0  0  0
  120.6444  119.1030   90.2038 H   0  0  0  0  0  0  0  0  0  0  0  0
  119.2289  120.1667   90.4219 H   0  0  0  0  0  0  0  0  0  0  0  0
  125.1119  120.2214   89.4802 H   0  0  0  0  0  0  0  0  0  0  0  0
  124.8089  120.3326   91.2347 H   0  0  0  0  0  0  0  0  0  0  0  0
  122.2664  119.8668   88.3418 H   0  0  0  0  0  0  0  0  0  0  0  0
  121.5109  122.5505   87.3366 H   0  0  0  0  0  0  0  0  0  0  0  0
  122.4455  124.0793   85.6119 H   0  0  0  0  0  0  0  0  0  0  0  0
  124.8545  123.9506   84.9880 H   0  0  0  0  0  0  0  0  0  0  0  0
  126.3391  122.2858   86.1084 H   0  0  0  0  0  0  0  0  0  0  0  0
  1  2  2  3
  2  3  1  0
  2  4  1  0
  4  5  2  3
  5  6  1  0
  5  7  1  0
  7  8  1  0
  8  9  2  0
  9 10  1  0
 10 11  2  0
 11 12  1  0
 12 13  2  0
 13 14  1  0
 13  8  1  0
  1 15  1  0
  3 16  1  0
  3 17  1  0
  6 18  1  0
  6 19  1  0
  7 20  1  0
  9 21  1  0
 10 22  1  0
 11 23  1  0
 12 24  1  0
M  END
>  <loss>  (5) 
0.7446779012680054

>  <score>  (5) 
1.4768638610839844

$$$$
MKWFJPZMYHPQIA-UHFFFAOYSA-N
     RDKit          3D

 24 24  0  0  0  0  0  0  0  0999 V2000
  120.7159  121.6624   91.3147 N   0  0  0  0  0  0  0  0  0  0  0  0
  121.3595  120.6243   90.9123 C   0  0  0  0  0  0  0  0  0  0  0  0
  120.7084  119.5176   90.4834 N   0  0  0  0  0  0  0  0  0  0  0  0
  122.7106  120.6935   90.9810 N   0  0  0  0  0  0  0  0  0  0  0  0
  123.4361  120.6404   89.9144 C   0  0  0  0  0  0  0  0  0  0  0  0
  124.7873  120.5944   90.0939 N   0  0  0  0  0  0  0  0  0  0  0  0
  123.1152  120.5658   88.5862 N   0  0  0  0  0  0  0  0  0  0  0  0
  123.3960  121.5608   87.6069 C   0  0  0  0  0  0  0  0  0  0  0  0
  122.4251  122.4532   87.1322 C   0  0  0  0  0  0  0  0  0  0  0  0
  122.7324  123.3982   86.1478 C   0  0  0  0  0  0  0  0  0  0  0  0
  124.0187  123.4708   85.6202 C   0  0  0  0  0  0  0  0  0  0  0  0
  125.0035  122.5995   86.0790 C   0  0  0  0  0  0  0  0  0  0  0  0
  124.6940  121.6549   87.0621 C   0  0  0  0  0  0  0  0  0  0  0  0
  125.9559  120.5977   87.5995 Cl  0  0  0  0  0  0  0  0  0  0  0  0
  121.2305  122.4944   91.6372 H   0  0  0  0  0  0  0  0  0  0  0  0
  121.2427  118.6966   90.1652 H   0  0  0  0  0  0  0  0  0  0  0  0
  119.6786  119.4967   90.4753 H   0  0  0  0  0  0  0  0  0  0  0  0
  125.4141  120.5511   89.2777 H   0  0  0  0  0  0  0  0  0  0  0  0
  125.1810  120.6029   91.0457 H   0  0  0  0  0  0  0  0  0  0  0  0
  122.6283  119.7161   88.2671 H   0  0  0  0  0  0  0  0  0  0  0  0
  121.4047  122.4096   87.5406 H   0  0  0  0  0  0  0  0  0  0  0  0
  121.9539  124.0874   85.7888 H   0  0  0  0  0  0  0  0  0  0  0  0
  124.2562  124.2133   84.8441 H   0  0  0  0  0  0  0  0  0  0  0  0
  126.0227  122.6543   85.6687 H   0  0  0  0  0  0  0  0  0  0  0  0
  1  2  2  3
  2  3  1  0
  2  4  1  0
  4  5  2  3
  5  6  1  0
  5  7  1  0
  7  8  1  0
  8  9  2  0
  9 10  1  0
 10 11  2  0
 11 12  1  0
 12 13  2  0
 13 14  1  0
 13  8  1  0
  1 15  1  0
  3 16  1  0
  3 17  1  0
  6 18  1  0
  6 19  1  0
  7 20  1  0
  9 21  1  0
 10 22  1  0
 11 23  1  0
 12 24  1  0
M  END
>  <loss>  (6) 
0.7402682900428772

>  <score>  (6) 
1.3274767398834229

$$$$
MKWFJPZMYHPQIA-UHFFFAOYSA-N
     RDKit          3D

 24 24  0  0  0  0  0  0  0  0999 V2000
  120.3802  120.1069   91.5346 N   0  0  0  0  0  0  0  0  0  0  0  0
  120.8246  121.2834   91.2466 C   0  0  0  0  0  0  0  0  0  0  0  0
  120.1831  122.3931   91.6706 N   0  0  0  0  0  0  0  0  0  0  0  0
  121.9766  121.4544   90.5544 N   0  0  0  0  0  0  0  0  0  0  0  0
  122.6083  120.4689   90.0051 C   0  0  0  0  0  0  0  0  0  0  0  0
  122.2221  119.1568   90.0272 N   0  0  0  0  0  0  0  0  0  0  0  0
  123.7669  120.5640   89.2811 N   0  0  0  0  0  0  0  0  0  0  0  0
  124.0343  121.3500   88.1380 C   0  0  0  0  0  0  0  0  0  0  0  0
  123.0408  122.0787   87.4705 C   0  0  0  0  0  0  0  0  0  0  0  0
  123.3453  122.8749   86.3602 C   0  0  0  0  0  0  0  0  0  0  0  0
  124.6563  122.9690   85.9018 C   0  0  0  0  0  0  0  0  0  0  0  0
  125.6673  122.2729   86.5587 C   0  0  0  0  0  0  0  0  0  0  0  0
  125.3584  121.4791   87.6680 C   0  0  0  0  0  0  0  0  0  0  0  0
  126.6573  120.6430   88.4539 Cl  0  0  0  0  0  0  0  0  0  0  0  0
  120.8825  119.2712   91.2027 H   0  0  0  0  0  0  0  0  0  0  0  0
  120.5521  123.3245   91.4313 H   0  0  0  0  0  0  0  0  0  0  0  0
  119.3246  122.3083   92.2334 H   0  0  0  0  0  0  0  0  0  0  0  0
  122.7969  118.4428   89.5574 H   0  0  0  0  0  0  0  0  0  0  0  0
  121.3566  118.8828   90.5137 H   0  0  0  0  0  0  0  0  0  0  0  0
  124.5495  119.9837   89.6153 H   0  0  0  0  0  0  0  0  0  0  0  0
  122.0013  122.0240   87.8260 H   0  0  0  0  0  0  0  0  0  0  0  0
  122.5450  123.4288   85.8476 H   0  0  0  0  0  0  0  0  0  0  0  0
  124.8922  123.5901   85.0251 H   0  0  0  0  0  0  0  0  0  0  0  0
  126.7066  122.3471   86.2061 H   0  0  0  0  0  0  0  0  0  0  0  0
  1  2  2  3
  2  3  1  0
  2  4  1  0
  4  5  2  3
  5  6  1  0
  5  7  1  0
  7  8  1  0
  8  9  2  0
  9 10  1  0
 10 11  2  0
 11 12  1  0
 12 13  2  0
 13 14  1  0
 13  8  1  0
  1 15  1  0
  3 16  1  0
  3 17  1  0
  6 18  1  0
  6 19  1  0
  7 20  1  0
  9 21  1  0
 10 22  1  0
 11 23  1  0
 12 24  1  0
M  END
>  <loss>  (7) 
0.7172700762748718

>  <score>  (7) 
-0.19431281089782715

$$$$
MKWFJPZMYHPQIA-UHFFFAOYSA-N
     RDKit          3D

 24 24  0  0  0  0  0  0  0  0999 V2000
  119.8020  120.6578   91.0093 N   0  0  0  0  0  0  0  0  0  0  0  0
  120.6742  121.5997   91.0335 C   0  0  0  0  0  0  0  0  0  0  0  0
  120.5965  122.5768   91.9607 N   0  0  0  0  0  0  0  0  0  0  0  0
  121.6132  121.5587   90.0648 N   0  0  0  0  0  0  0  0  0  0  0  0
  122.4590  120.5825   90.0114 C   0  0  0  0  0  0  0  0  0  0  0  0
  122.5270  119.5295   90.8837 N   0  0  0  0  0  0  0  0  0  0  0  0
  123.4511  120.4344   89.0809 N   0  0  0  0  0  0  0  0  0  0  0  0
  123.8870  121.3317   88.0793 C   0  0  0  0  0  0  0  0  0  0  0  0
  123.0102  122.1132   87.3163 C   0  0  0  0  0  0  0  0  0  0  0  0
  123.4825  122.9640   86.3094 C   0  0  0  0  0  0  0  0  0  0  0  0
  124.8448  123.0408   86.0346 C   0  0  0  0  0  0  0  0  0  0  0  0
  125.7384  122.2608   86.7625 C   0  0  0  0  0  0  0  0  0  0  0  0
  125.2620  121.4129   87.7674 C   0  0  0  0  0  0  0  0  0  0  0  0
  126.4183  120.4585   88.6382 Cl  0  0  0  0  0  0  0  0  0  0  0  0
  119.8663  119.9145   90.2992 H   0  0  0  0  0  0  0  0  0  0  0  0
  121.2989  123.3299   91.9754 H   0  0  0  0  0  0  0  0  0  0  0  0
  119.8347  122.5695   92.6539 H   0  0  0  0  0  0  0  0  0  0  0  0
  123.2413  118.7988   90.7543 H   0  0  0  0  0  0  0  0  0  0  0  0
  121.8639  119.4680   91.6695 H   0  0  0  0  0  0  0  0  0  0  0  0
  123.9548  119.5366   89.1153 H   0  0  0  0  0  0  0  0  0  0  0  0
  121.9291  122.0575   87.5118 H   0  0  0  0  0  0  0  0  0  0  0  0
  122.7729  123.5753   85.7325 H   0  0  0  0  0  0  0  0  0  0  0  0
  125.2130  123.7140   85.2464 H   0  0  0  0  0  0  0  0  0  0  0  0
  126.8161  122.3111   86.5482 H   0  0  0  0  0  0  0  0  0  0  0  0
  1  2  2  3
  2  3  1  0
  2  4  1  0
  4  5  2  3
  5  6  1  0
  5  7  1  0
  7  8  1  0
  8  9  2  0
  9 10  1  0
 10 11  2  0
 11 12  1  0
 12 13  2  0
 13 14  1  0
 13  8  1  0
  1 15  1  0
  3 16  1  0
  3 17  1  0
  6 18  1  0
  6 19  1  0
  7 20  1  0
  9 21  1  0
 10 22  1  0
 11 23  1  0
 12 24  1  0
M  END
>  <loss>  (8) 
0.7191765904426575

>  <score>  (8) 
-2.7084388732910156

$$$$
MKWFJPZMYHPQIA-UHFFFAOYSA-N
     RDKit          3D

 24 24  0  0  0  0  0  0  0  0999 V2000
  121.5782  120.9952   92.5877 N   0  0  0  0  0  0  0  0  0  0  0  0
  121.3039  121.0074   91.3271 C   0  0  0  0  0  0  0  0  0  0  0  0
  120.0574  120.7392   90.8830 N   0  0  0  0  0  0  0  0  0  0  0  0
  122.2376  121.3394   90.4033 N   0  0  0  0  0  0  0  0  0  0  0  0
  122.9852  120.4570   89.8248 C   0  0  0  0  0  0  0  0  0  0  0  0
  122.9437  119.1065   90.0386 N   0  0  0  0  0  0  0  0  0  0  0  0
  123.9382  120.7129   88.8753 N   0  0  0  0  0  0  0  0  0  0  0  0
  123.8590  121.5603   87.7476 C   0  0  0  0  0  0  0  0  0  0  0  0
  122.6618  122.1585   87.3322 C   0  0  0  0  0  0  0  0  0  0  0  0
  122.6238  123.0204   86.2299 C   0  0  0  0  0  0  0  0  0  0  0  0
  123.7889  123.3126   85.5264 C   0  0  0  0  0  0  0  0  0  0  0  0
  124.9966  122.7494   85.9298 C   0  0  0  0  0  0  0  0  0  0  0  0
  125.0298  121.8893   87.0321 C   0  0  0  0  0  0  0  0  0  0  0  0
  126.5617  121.2251   87.4967 Cl  0  0  0  0  0  0  0  0  0  0  0  0
  122.5348  121.2022   92.9086 H   0  0  0  0  0  0  0  0  0  0  0  0
  119.8563  120.7534   89.8729 H   0  0  0  0  0  0  0  0  0  0  0  0
  119.3075  120.5203   91.5544 H   0  0  0  0  0  0  0  0  0  0  0  0
  123.5842  118.4840   89.5257 H   0  0  0  0  0  0  0  0  0  0  0  0
  122.2720  118.7122   90.7126 H   0  0  0  0  0  0  0  0  0  0  0  0
  124.8344  120.2209   89.0002 H   0  0  0  0  0  0  0  0  0  0  0  0
  121.7337  121.9467   87.8833 H   0  0  0  0  0  0  0  0  0  0  0  0
  121.6690  123.4687   85.9181 H   0  0  0  0  0  0  0  0  0  0  0  0
  123.7556  123.9849   84.6565 H   0  0  0  0  0  0  0  0  0  0  0  0
  125.9225  122.9804   85.3827 H   0  0  0  0  0  0  0  0  0  0  0  0
  1  2  2  3
  2  3  1  0
  2  4  1  0
  4  5  2  3
  5  6  1  0
  5  7  1  0
  7  8  1  0
  8  9  2  0
  9 10  1  0
 10 11  2  0
 11 12  1  0
 12 13  2  0
 13 14  1  0
 13  8  1  0
  1 15  1  0
  3 16  1  0
  3 17  1  0
  6 18  1  0
  6 19  1  0
  7 20  1  0
  9 21  1  0
 10 22  1  0
 11 23  1  0
 12 24  1  0
M  END
>  <loss>  (9) 
0.7177340388298035

>  <score>  (9) 
-3.8359341621398926

$$$$
MKWFJPZMYHPQIA-UHFFFAOYSA-N
     RDKit          3D

 24 24  0  0  0  0  0  0  0  0999 V2000
  119.9802  120.4116   91.3463 N   0  0  0  0  0  0  0  0  0  0  0  0
  120.8098  121.3616   91.1060 C   0  0  0  0  0  0  0  0  0  0  0  0
  120.9640  122.3710   91.9879 N   0  0  0  0  0  0  0  0  0  0  0  0
  121.4573  121.2939   89.9237 N   0  0  0  0  0  0  0  0  0  0  0  0
  122.5873  120.6731   89.8288 C   0  0  0  0  0  0  0  0  0  0  0  0
  123.2512  120.0516   90.8521 N   0  0  0  0  0  0  0  0  0  0  0  0
  123.3328  120.5397   88.6892 N   0  0  0  0  0  0  0  0  0  0  0  0
  123.6612  121.5051   87.7102 C   0  0  0  0  0  0  0  0  0  0  0  0
  122.6996  122.2504   87.0161 C   0  0  0  0  0  0  0  0  0  0  0  0
  123.0673  123.1723   86.0285 C   0  0  0  0  0  0  0  0  0  0  0  0
  124.4078  123.3586   85.7036 C   0  0  0  0  0  0  0  0  0  0  0  0
  125.3845  122.6174   86.3621 C   0  0  0  0  0  0  0  0  0  0  0  0
  125.0125  121.6981   87.3481 C   0  0  0  0  0  0  0  0  0  0  0  0
  126.2694  120.7966   88.1313 Cl  0  0  0  0  0  0  0  0  0  0  0  0
  119.8666  119.6436   90.6694 H   0  0  0  0  0  0  0  0  0  0  0  0
  121.6310  123.1305   91.7900 H   0  0  0  0  0  0  0  0  0  0  0  0
  120.4147  122.3821   92.8591 H   0  0  0  0  0  0  0  0  0  0  0  0
  124.1504  119.5823   90.6728 H   0  0  0  0  0  0  0  0  0  0  0  0
  122.8514  120.0532   91.8014 H   0  0  0  0  0  0  0  0  0  0  0  0
  123.7106  119.5966   88.5197 H   0  0  0  0  0  0  0  0  0  0  0  0
  121.6345  122.1086   87.2516 H   0  0  0  0  0  0  0  0  0  0  0  0
  122.2924  123.7527   85.5064 H   0  0  0  0  0  0  0  0  0  0  0  0
  124.6936  124.0874   84.9309 H   0  0  0  0  0  0  0  0  0  0  0  0
  126.4459  122.7543   86.1077 H   0  0  0  0  0  0  0  0  0  0  0  0
  1  2  2  3
  2  3  1  0
  2  4  1  0
  4  5  2  3
  5  6  1  0
  5  7  1  0
  7  8  1  0
  8  9  2  0
  9 10  1  0
 10 11  2  0
 11 12  1  0
 12 13  2  0
 13 14  1  0
 13  8  1  0
  1 15  1  0
  3 16  1  0
  3 17  1  0
  6 18  1  0
  6 19  1  0
  7 20  1  0
  9 21  1  0
 10 22  1  0
 11 23  1  0
 12 24  1  0
M  END
>  <loss>  (10) 
0.7158674001693726

>  <score>  (10) 
-4.302248001098633

$$$$
MKWFJPZMYHPQIA-UHFFFAOYSA-N
     RDKit          3D

 24 24  0  0  0  0  0  0  0  0999 V2000
  121.5117  122.0062   92.1101 N   0  0  0  0  0  0  0  0  0  0  0  0
  121.2715  121.1048   91.2188 C   0  0  0  0  0  0  0  0  0  0  0  0
  120.3785  120.1187   91.4488 N   0  0  0  0  0  0  0  0  0  0  0  0
  121.8633  121.1394   90.0006 N   0  0  0  0  0  0  0  0  0  0  0  0
  122.9785  120.5331   89.7540 C   0  0  0  0  0  0  0  0  0  0  0  0
  123.6985  119.7849   90.6445 N   0  0  0  0  0  0  0  0  0  0  0  0
  123.6290  120.5110   88.5491 N   0  0  0  0  0  0  0  0  0  0  0  0
  123.6808  121.5113   87.5527 C   0  0  0  0  0  0  0  0  0  0  0  0
  122.5431  122.2001   87.1110 C   0  0  0  0  0  0  0  0  0  0  0  0
  122.6336  123.2097   86.1457 C   0  0  0  0  0  0  0  0  0  0  0  0
  123.8697  123.5611   85.6106 C   0  0  0  0  0  0  0  0  0  0  0  0
  125.0195  122.9084   86.0466 C   0  0  0  0  0  0  0  0  0  0  0  0
  124.9243  121.9006   87.0117 C   0  0  0  0  0  0  0  0  0  0  0  0
  126.3887  121.1289   87.5256 Cl  0  0  0  0  0  0  0  0  0  0  0  0
  122.1963  122.7513   91.9175 H   0  0  0  0  0  0  0  0  0  0  0  0
  120.1992  119.4074   90.7258 H   0  0  0  0  0  0  0  0  0  0  0  0
  119.8766  120.0777   92.3473 H   0  0  0  0  0  0  0  0  0  0  0  0
  124.5795  119.3401   90.3496 H   0  0  0  0  0  0  0  0  0  0  0  0
  123.3597  119.6663   91.6100 H   0  0  0  0  0  0  0  0  0  0  0  0
  124.1513  119.6481   88.3410 H   0  0  0  0  0  0  0  0  0  0  0  0
  121.5597  121.9422   87.5311 H   0  0  0  0  0  0  0  0  0  0  0  0
  121.7237  123.7278   85.8084 H   0  0  0  0  0  0  0  0  0  0  0  0
  123.9376  124.3503   84.8474 H   0  0  0  0  0  0  0  0  0  0  0  0
  126.0006  123.1847   85.6329 H   0  0  0  0  0  0  0  0  0  0  0  0
  1  2  2  3
  2  3  1  0
  2  4  1  0
  4  5  2  3
  5  6  1  0
  5  7  1  0
  7  8  1  0
  8  9  2  0
  9 10  1  0
 10 11  2  0
 11 12  1  0
 12 13  2  0
 13 14  1  0
 13  8  1  0
  1 15  1  0
  3 16  1  0
  3 17  1  0
  6 18  1  0
  6 19  1  0
  7 20  1  0
  9 21  1  0
 10 22  1  0
 11 23  1  0
 12 24  1  0
M  END
>  <loss>  (11) 
0.7169448137283325

>  <score>  (11) 
-5.49664306640625

$$$$
MKWFJPZMYHPQIA-UHFFFAOYSA-N
     RDKit          3D

 24 24  0  0  0  0  0  0  0  0999 V2000
  122.3530  121.6998   92.2839 N   0  0  0  0  0  0  0  0  0  0  0  0
  121.6058  121.1597   91.3870 C   0  0  0  0  0  0  0  0  0  0  0  0
  120.3382  121.5894   91.2237 N   0  0  0  0  0  0  0  0  0  0  0  0
  122.0444  120.0848   90.6914 N   0  0  0  0  0  0  0  0  0  0  0  0
  123.0063  120.1913   89.8325 C   0  0  0  0  0  0  0  0  0  0  0  0
  123.4566  119.0271   89.2814 N   0  0  0  0  0  0  0  0  0  0  0  0
  123.7288  121.2581   89.3819 N   0  0  0  0  0  0  0  0  0  0  0  0
  123.7712  121.7650   88.0559 C   0  0  0  0  0  0  0  0  0  0  0  0
  122.6461  122.2866   87.4049 C   0  0  0  0  0  0  0  0  0  0  0  0
  122.7363  122.8090   86.1100 C   0  0  0  0  0  0  0  0  0  0  0  0
  123.9568  122.8208   85.4402 C   0  0  0  0  0  0  0  0  0  0  0  0
  125.0905  122.3056   86.0632 C   0  0  0  0  0  0  0  0  0  0  0  0
  124.9971  121.7850   87.3575 C   0  0  0  0  0  0  0  0  0  0  0  0
  126.4337  121.1365   88.0775 Cl  0  0  0  0  0  0  0  0  0  0  0  0
  123.3218  121.3741   92.4115 H   0  0  0  0  0  0  0  0  0  0  0  0
  119.7370  121.1593   90.5065 H   0  0  0  0  0  0  0  0  0  0  0  0
  119.9712  122.3478   91.8161 H   0  0  0  0  0  0  0  0  0  0  0  0
  124.2207  119.0459   88.5910 H   0  0  0  0  0  0  0  0  0  0  0  0
  123.0323  118.1295   89.5557 H   0  0  0  0  0  0  0  0  0  0  0  0
  124.3062  121.7489   90.0795 H   0  0  0  0  0  0  0  0  0  0  0  0
  121.6745  122.2856   87.9207 H   0  0  0  0  0  0  0  0  0  0  0  0
  121.8385  123.2123   85.6188 H   0  0  0  0  0  0  0  0  0  0  0  0
  124.0251  123.2351   84.4235 H   0  0  0  0  0  0  0  0  0  0  0  0
  126.0572  122.3083   85.5384 H   0  0  0  0  0  0  0  0  0  0  0  0
  1  2  2  3
  2  3  1  0
  2  4  1  0
  4  5  2  3
  5  6  1  0
  5  7  1  0
  7  8  1  0
  8  9  2  0
  9 10  1  0
 10 11  2  0
 11 12  1  0
 12 13  2  0
 13 14  1  0
 13  8  1  0
  1 15  1  0
  3 16  1  0
  3 17  1  0
  6 18  1  0
  6 19  1  0
  7 20  1  0
  9 21  1  0
 10 22  1  0
 11 23  1  0
 12 24  1  0
M  END
>  <loss>  (12) 
0.7185835838317871

>  <score>  (12) 
-5.741103172302246

$$$$
MKWFJPZMYHPQIA-UHFFFAOYSA-N
     RDKit          3D

 24 24  0  0  0  0  0  0  0  0999 V2000
  120.2788  120.2051   91.3277 N   0  0  0  0  0  0  0  0  0  0  0  0
  121.1321  121.1544   91.1888 C   0  0  0  0  0  0  0  0  0  0  0  0
  121.3247  122.0480   92.1811 N   0  0  0  0  0  0  0  0  0  0  0  0
  121.7639  121.2095   89.9974 N   0  0  0  0  0  0  0  0  0  0  0  0
  122.8459  120.5313   89.7962 C   0  0  0  0  0  0  0  0  0  0  0  0
  123.4716  119.7267   90.7101 N   0  0  0  0  0  0  0  0  0  0  0  0
  123.5711  120.5088   88.6361 N   0  0  0  0  0  0  0  0  0  0  0  0
  123.7299  121.5132   87.6541 C   0  0  0  0  0  0  0  0  0  0  0  0
  122.6544  122.2139   87.0937 C   0  0  0  0  0  0  0  0  0  0  0  0
  122.8539  123.1775   86.0976 C   0  0  0  0  0  0  0  0  0  0  0  0
  124.1359  123.4514   85.6299 C   0  0  0  0  0  0  0  0  0  0  0  0
  125.2221  122.7566   86.1535 C   0  0  0  0  0  0  0  0  0  0  0  0
  125.0180  121.7953   87.1486 C   0  0  0  0  0  0  0  0  0  0  0  0
  126.4056  120.9547   87.7601 Cl  0  0  0  0  0  0  0  0  0  0  0  0
  120.1358  119.5257   90.5669 H   0  0  0  0  0  0  0  0  0  0  0  0
  122.0106  122.8076   92.0642 H   0  0  0  0  0  0  0  0  0  0  0  0
  120.7859  121.9708   93.0555 H   0  0  0  0  0  0  0  0  0  0  0  0
  124.3336  119.2261   90.4507 H   0  0  0  0  0  0  0  0  0  0  0  0
  123.0804  119.6219   91.6572 H   0  0  0  0  0  0  0  0  0  0  0  0
  124.0757  119.6302   88.4509 H   0  0  0  0  0  0  0  0  0  0  0  0
  121.6329  122.0029   87.4430 H   0  0  0  0  0  0  0  0  0  0  0  0
  121.9925  123.7212   85.6823 H   0  0  0  0  0  0  0  0  0  0  0  0
  124.2896  124.2128   84.8510 H   0  0  0  0  0  0  0  0  0  0  0  0
  126.2381  122.9628   85.7858 H   0  0  0  0  0  0  0  0  0  0  0  0
  1  2  2  3
  2  3  1  0
  2  4  1  0
  4  5  2  3
  5  6  1  0
  5  7  1  0
  7  8  1  0
  8  9  2  0
  9 10  1  0
 10 11  2  0
 11 12  1  0
 12 13  2  0
 13 14  1  0
 13  8  1  0
  1 15  1  0
  3 16  1  0
  3 17  1  0
  6 18  1  0
  6 19  1  0
  7 20  1  0
  9 21  1  0
 10 22  1  0
 11 23  1  0
 12 24  1  0
M  END
>  <loss>  (13) 
0.716044008731842

>  <score>  (13) 
-6.932642936706543

$$$$
MKWFJPZMYHPQIA-UHFFFAOYSA-N
     RDKit          3D

 24 24  0  0  0  0  0  0  0  0999 V2000
  122.0912  121.8148   92.3528 N   0  0  0  0  0  0  0  0  0  0  0  0
  121.3993  121.3753   91.3614 C   0  0  0  0  0  0  0  0  0  0  0  0
  120.2201  121.9546   91.0585 N   0  0  0  0  0  0  0  0  0  0  0  0
  121.7893  120.2616   90.6987 N   0  0  0  0  0  0  0  0  0  0  0  0
  122.7934  120.2860   89.8831 C   0  0  0  0  0  0  0  0  0  0  0  0
  123.1821  119.0846   89.3662 N   0  0  0  0  0  0  0  0  0  0  0  0
  123.6105  121.2914   89.4533 N   0  0  0  0  0  0  0  0  0  0  0  0
  123.7675  121.7570   88.1208 C   0  0  0  0  0  0  0  0  0  0  0  0
  122.7130  122.2994   87.3757 C   0  0  0  0  0  0  0  0  0  0  0  0
  122.9160  122.7796   86.0772 C   0  0  0  0  0  0  0  0  0  0  0  0
  124.1811  122.7274   85.4982 C   0  0  0  0  0  0  0  0  0  0  0  0
  125.2465  122.1903   86.2160 C   0  0  0  0  0  0  0  0  0  0  0  0
  125.0404  121.7119   87.5135 C   0  0  0  0  0  0  0  0  0  0  0  0
  126.3957  121.0336   88.3538 Cl  0  0  0  0  0  0  0  0  0  0  0  0
  122.9925  121.3748   92.5871 H   0  0  0  0  0  0  0  0  0  0  0  0
  119.6633  121.6054   90.2654 H   0  0  0  0  0  0  0  0  0  0  0  0
  119.8759  122.7464   91.6202 H   0  0  0  0  0  0  0  0  0  0  0  0
  123.9754  119.0382   88.7109 H   0  0  0  0  0  0  0  0  0  0  0  0
  122.6822  118.2239   89.6313 H   0  0  0  0  0  0  0  0  0  0  0  0
  124.1747  121.7639   90.1740 H   0  0  0  0  0  0  0  0  0  0  0  0
  121.7075  122.3488   87.8190 H   0  0  0  0  0  0  0  0  0  0  0  0
  122.0720  123.2004   85.5110 H   0  0  0  0  0  0  0  0  0  0  0  0
  124.3382  123.1087   84.4784 H   0  0  0  0  0  0  0  0  0  0  0  0
  126.2479  122.1425   85.7633 H   0  0  0  0  0  0  0  0  0  0  0  0
  1  2  2  3
  2  3  1  0
  2  4  1  0
  4  5  2  3
  5  6  1  0
  5  7  1  0
  7  8  1  0
  8  9  2  0
  9 10  1  0
 10 11  2  0
 11 12  1  0
 12 13  2  0
 13 14  1  0
 13  8  1  0
  1 15  1  0
  3 16  1  0
  3 17  1  0
  6 18  1  0
  6 19  1  0
  7 20  1  0
  9 21  1  0
 10 22  1  0
 11 23  1  0
 12 24  1  0
M  END
>  <loss>  (14) 
0.7204484343528748

>  <score>  (14) 
-7.161402702331543

$$$$
MKWFJPZMYHPQIA-UHFFFAOYSA-N
     RDKit          3D

 24 24  0  0  0  0  0  0  0  0999 V2000
  121.8286  121.6755   92.3629 N   0  0  0  0  0  0  0  0  0  0  0  0
  121.1792  121.3119   91.3138 C   0  0  0  0  0  0  0  0  0  0  0  0
  120.0699  121.9845   90.9462 N   0  0  0  0  0  0  0  0  0  0  0  0
  121.5334  120.1878   90.6485 N   0  0  0  0  0  0  0  0  0  0  0  0
  122.6281  120.1348   89.9608 C   0  0  0  0  0  0  0  0  0  0  0  0
  122.9541  118.9184   89.4356 N   0  0  0  0  0  0  0  0  0  0  0  0
  123.5898  121.0624   89.6817 N   0  0  0  0  0  0  0  0  0  0  0  0
  123.9503  121.5642   88.4029 C   0  0  0  0  0  0  0  0  0  0  0  0
  123.0396  122.2042   87.5528 C   0  0  0  0  0  0  0  0  0  0  0  0
  123.4420  122.7161   86.3143 C   0  0  0  0  0  0  0  0  0  0  0  0
  124.7665  122.5985   85.9019 C   0  0  0  0  0  0  0  0  0  0  0  0
  125.6919  121.9640   86.7264 C   0  0  0  0  0  0  0  0  0  0  0  0
  125.2867  121.4541   87.9636 C   0  0  0  0  0  0  0  0  0  0  0  0
  126.4738  120.6545   88.9406 Cl  0  0  0  0  0  0  0  0  0  0  0  0
  122.6764  121.1641   92.6468 H   0  0  0  0  0  0  0  0  0  0  0  0
  119.5473  121.6962   90.1067 H   0  0  0  0  0  0  0  0  0  0  0  0
  119.7451  122.7865   91.5049 H   0  0  0  0  0  0  0  0  0  0  0  0
  123.8137  118.8117   88.8782 H   0  0  0  0  0  0  0  0  0  0  0  0
  122.3406  118.1069   89.5965 H   0  0  0  0  0  0  0  0  0  0  0  0
  124.1109  121.4396   90.4861 H   0  0  0  0  0  0  0  0  0  0  0  0
  121.9895  122.3062   87.8643 H   0  0  0  0  0  0  0  0  0  0  0  0
  122.7083  123.2139   85.6633 H   0  0  0  0  0  0  0  0  0  0  0  0
  125.0805  123.0049   84.9291 H   0  0  0  0  0  0  0  0  0  0  0  0
  126.7392  121.8642   86.4052 H   0  0  0  0  0  0  0  0  0  0  0  0
  1  2  2  3
  2  3  1  0
  2  4  1  0
  4  5  2  3
  5  6  1  0
  5  7  1  0
  7  8  1  0
  8  9  2  0
  9 10  1  0
 10 11  2  0
 11 12  1  0
 12 13  2  0
 13 14  1  0
 13  8  1  0
  1 15  1  0
  3 16  1  0
  3 17  1  0
  6 18  1  0
  6 19  1  0
  7 20  1  0
  9 21  1  0
 10 22  1  0
 11 23  1  0
 12 24  1  0
M  END
>  <loss>  (15) 
0.7773671746253967

>  <score>  (15) 
-7.247174263000488

$$$$
MKWFJPZMYHPQIA-UHFFFAOYSA-N
     RDKit          3D

 24 24  0  0  0  0  0  0  0  0999 V2000
  121.8278  121.6753   92.3632 N   0  0  0  0  0  0  0  0  0  0  0  0
  121.1788  121.3121   91.3138 C   0  0  0  0  0  0  0  0  0  0  0  0
  120.0698  121.9850   90.9458 N   0  0  0  0  0  0  0  0  0  0  0  0
  121.5329  120.1880   90.6484 N   0  0  0  0  0  0  0  0  0  0  0  0
  122.6277  120.1350   89.9608 C   0  0  0  0  0  0  0  0  0  0  0  0
  122.9537  118.9186   89.4356 N   0  0  0  0  0  0  0  0  0  0  0  0
  123.5896  121.0625   89.6819 N   0  0  0  0  0  0  0  0  0  0  0  0
  123.9505  121.5641   88.4032 C   0  0  0  0  0  0  0  0  0  0  0  0
  123.0401  122.2041   87.5528 C   0  0  0  0  0  0  0  0  0  0  0  0
  123.4430  122.7159   86.3144 C   0  0  0  0  0  0  0  0  0  0  0  0
  124.7677  122.5981   85.9024 C   0  0  0  0  0  0  0  0  0  0  0  0
  125.6928  121.9637   86.7273 C   0  0  0  0  0  0  0  0  0  0  0  0
  125.2871  121.4539   87.9645 C   0  0  0  0  0  0  0  0  0  0  0  0
  126.4738  120.6544   88.9420 Cl  0  0  0  0  0  0  0  0  0  0  0  0
  122.6754  121.1636   92.6474 H   0  0  0  0  0  0  0  0  0  0  0  0
  119.5475  121.6970   90.1061 H   0  0  0  0  0  0  0  0  0  0  0  0
  119.7449  122.7870   91.5045 H   0  0  0  0  0  0  0  0  0  0  0  0
  123.8133  118.8119   88.8783 H   0  0  0  0  0  0  0  0  0  0  0  0
  122.3401  118.1071   89.5963 H   0  0  0  0  0  0  0  0  0  0  0  0
  124.1104  121.4397   90.4866 H   0  0  0  0  0  0  0  0  0  0  0  0
  121.9900  122.3062   87.8639 H   0  0  0  0  0  0  0  0  0  0  0  0
  122.7095  123.2137   85.6631 H   0  0  0  0  0  0  0  0  0  0  0  0
  125.0820  123.0044   84.9297 H   0  0  0  0  0  0  0  0  0  0  0  0
  126.7402  121.8637   86.4065 H   0  0  0  0  0  0  0  0  0  0  0  0
  1  2  2  3
  2  3  1  0
  2  4  1  0
  4  5  2  3
  5  6  1  0
  5  7  1  0
  7  8  1  0
  8  9  2  0
  9 10  1  0
 10 11  2  0
 11 12  1  0
 12 13  2  0
 13 14  1  0
 13  8  1  0
  1 15  1  0
  3 16  1  0
  3 17  1  0
  6 18  1  0
  6 19  1  0
  7 20  1  0
  9 21  1  0
 10 22  1  0
 11 23  1  0
 12 24  1  0
M  END
>  <loss>  (16) 
0.777367115020752

>  <score>  (16) 
-7.250674247741699

$$$$
MKWFJPZMYHPQIA-UHFFFAOYSA-N
     RDKit          3D

 24 24  0  0  0  0  0  0  0  0999 V2000
  121.5198  121.5987   92.4726 N   0  0  0  0  0  0  0  0  0  0  0  0
  121.2256  121.1693   91.2989 C   0  0  0  0  0  0  0  0  0  0  0  0
  120.0565  120.5325   91.0795 N   0  0  0  0  0  0  0  0  0  0  0  0
  122.1269  121.4365   90.3304 N   0  0  0  0  0  0  0  0  0  0  0  0
  122.8558  120.4916   89.8333 C   0  0  0  0  0  0  0  0  0  0  0  0
  122.8071  119.1694   90.1853 N   0  0  0  0  0  0  0  0  0  0  0  0
  123.7976  120.6407   88.8519 N   0  0  0  0  0  0  0  0  0  0  0  0
  123.8122  121.5189   87.7444 C   0  0  0  0  0  0  0  0  0  0  0  0
  122.6621  122.1456   87.2481 C   0  0  0  0  0  0  0  0  0  0  0  0
  122.7269  123.0363   86.1695 C   0  0  0  0  0  0  0  0  0  0  0  0
  123.9491  123.3303   85.5720 C   0  0  0  0  0  0  0  0  0  0  0  0
  125.1117  122.7384   86.0566 C   0  0  0  0  0  0  0  0  0  0  0  0
  125.0420  121.8492   87.1337 C   0  0  0  0  0  0  0  0  0  0  0  0
  126.5217  121.1463   87.7014 Cl  0  0  0  0  0  0  0  0  0  0  0  0
  122.4137  122.0842   92.6344 H   0  0  0  0  0  0  0  0  0  0  0  0
  119.8258  120.1902   90.1358 H   0  0  0  0  0  0  0  0  0  0  0  0
  119.3949  120.3887   91.8556 H   0  0  0  0  0  0  0  0  0  0  0  0
  123.4330  118.4913   89.7278 H   0  0  0  0  0  0  0  0  0  0  0  0
  122.1446  118.8528   90.9076 H   0  0  0  0  0  0  0  0  0  0  0  0
  124.6168  120.0215   88.9321 H   0  0  0  0  0  0  0  0  0  0  0  0
  121.6888  121.9339   87.7148 H   0  0  0  0  0  0  0  0  0  0  0  0
  121.8067  123.5063   85.7924 H   0  0  0  0  0  0  0  0  0  0  0  0
  123.9958  124.0265   84.7216 H   0  0  0  0  0  0  0  0  0  0  0  0
  126.0825  122.9694   85.5938 H   0  0  0  0  0  0  0  0  0  0  0  0
  1  2  2  3
  2  3  1  0
  2  4  1  0
  4  5  2  3
  5  6  1  0
  5  7  1  0
  7  8  1  0
  8  9  2  0
  9 10  1  0
 10 11  2  0
 11 12  1  0
 12 13  2  0
 13 14  1  0
 13  8  1  0
  1 15  1  0
  3 16  1  0
  3 17  1  0
  6 18  1  0
  6 19  1  0
  7 20  1  0
  9 21  1  0
 10 22  1  0
 11 23  1  0
 12 24  1  0
M  END
>  <loss>  (17) 
0.7152034044265747

>  <score>  (17) 
-8.194499969482422

$$$$
MKWFJPZMYHPQIA-UHFFFAOYSA-N
     RDKit          3D

 24 24  0  0  0  0  0  0  0  0999 V2000
  121.5243  121.6698   92.4181 N   0  0  0  0  0  0  0  0  0  0  0  0
  121.3441  121.0401   91.3137 C   0  0  0  0  0  0  0  0  0  0  0  0
  120.3374  120.1500   91.1933 N   0  0  0  0  0  0  0  0  0  0  0  0
  122.1842  121.3622   90.3076 N   0  0  0  0  0  0  0  0  0  0  0  0
  122.9735  120.4723   89.8013 C   0  0  0  0  0  0  0  0  0  0  0  0
  123.0512  119.1587   90.1792 N   0  0  0  0  0  0  0  0  0  0  0  0
  123.8636  120.6799   88.7831 N   0  0  0  0  0  0  0  0  0  0  0  0
  123.7847  121.5672   87.6854 C   0  0  0  0  0  0  0  0  0  0  0  0
  122.5916  122.1765   87.2769 C   0  0  0  0  0  0  0  0  0  0  0  0
  122.5645  123.0769   86.2048 C   0  0  0  0  0  0  0  0  0  0  0  0
  123.7362  123.3982   85.5258 C   0  0  0  0  0  0  0  0  0  0  0  0
  124.9404  122.8240   85.9221 C   0  0  0  0  0  0  0  0  0  0  0  0
  124.9624  121.9249   86.9931 C   0  0  0  0  0  0  0  0  0  0  0  0
  126.4907  121.2449   87.4490 Cl  0  0  0  0  0  0  0  0  0  0  0  0
  122.2945  122.3482   92.5044 H   0  0  0  0  0  0  0  0  0  0  0  0
  120.1975  119.6477   90.3050 H   0  0  0  0  0  0  0  0  0  0  0  0
  119.7087  119.9727   91.9897 H   0  0  0  0  0  0  0  0  0  0  0  0
  123.7164  118.5267   89.7113 H   0  0  0  0  0  0  0  0  0  0  0  0
  122.4444  118.8025   90.9314 H   0  0  0  0  0  0  0  0  0  0  0  0
  124.7171  120.1047   88.8221 H   0  0  0  0  0  0  0  0  0  0  0  0
  121.6574  121.9432   87.8087 H   0  0  0  0  0  0  0  0  0  0  0  0
  121.6118  123.5329   85.8975 H   0  0  0  0  0  0  0  0  0  0  0  0
  123.7106  124.1019   84.6807 H   0  0  0  0  0  0  0  0  0  0  0  0
  125.8720  123.0765   85.3945 H   0  0  0  0  0  0  0  0  0  0  0  0
  1  2  2  3
  2  3  1  0
  2  4  1  0
  4  5  2  3
  5  6  1  0
  5  7  1  0
  7  8  1  0
  8  9  2  0
  9 10  1  0
 10 11  2  0
 11 12  1  0
 12 13  2  0
 13 14  1  0
 13  8  1  0
  1 15  1  0
  3 16  1  0
  3 17  1  0
  6 18  1  0
  6 19  1  0
  7 20  1  0
  9 21  1  0
 10 22  1  0
 11 23  1  0
 12 24  1  0
M  END
>  <loss>  (18) 
0.7172505855560303

>  <score>  (18) 
-8.24781608581543

$$$$
MKWFJPZMYHPQIA-UHFFFAOYSA-N
     RDKit          3D

 24 24  0  0  0  0  0  0  0  0999 V2000
  120.7461  121.9172   92.1782 N   0  0  0  0  0  0  0  0  0  0  0  0
  120.8768  121.1984   91.1148 C   0  0  0  0  0  0  0  0  0  0  0  0
  119.9235  120.3145   90.7504 N   0  0  0  0  0  0  0  0  0  0  0  0
  121.9462  121.3367   90.2946 N   0  0  0  0  0  0  0  0  0  0  0  0
  122.7126  120.3435   89.9811 C   0  0  0  0  0  0  0  0  0  0  0  0
  122.5626  119.0507   90.4023 N   0  0  0  0  0  0  0  0  0  0  0  0
  123.8001  120.4018   89.1509 N   0  0  0  0  0  0  0  0  0  0  0  0
  124.0524  121.2928   88.0839 C   0  0  0  0  0  0  0  0  0  0  0  0
  123.0429  122.0499   87.4745 C   0  0  0  0  0  0  0  0  0  0  0  0
  123.3316  122.9491   86.4413 C   0  0  0  0  0  0  0  0  0  0  0  0
  124.6422  123.1194   86.0043 C   0  0  0  0  0  0  0  0  0  0  0  0
  125.6684  122.3962   86.6062 C   0  0  0  0  0  0  0  0  0  0  0  0
  125.3752  121.4993   87.6385 C   0  0  0  0  0  0  0  0  0  0  0  0
  126.6923  120.6333   88.3590 Cl  0  0  0  0  0  0  0  0  0  0  0  0
  121.4834  122.5867   92.4411 H   0  0  0  0  0  0  0  0  0  0  0  0
  120.0445  119.7488   89.8982 H   0  0  0  0  0  0  0  0  0  0  0  0
  119.0753  120.2058   91.3246 H   0  0  0  0  0  0  0  0  0  0  0  0
  123.2295  118.3283   90.0952 H   0  0  0  0  0  0  0  0  0  0  0  0
  121.7828  118.7996   91.0267 H   0  0  0  0  0  0  0  0  0  0  0  0
  124.5338  119.7011   89.3286 H   0  0  0  0  0  0  0  0  0  0  0  0
  122.0031  121.9353   87.8147 H   0  0  0  0  0  0  0  0  0  0  0  0
  122.5192  123.5237   85.9726 H   0  0  0  0  0  0  0  0  0  0  0  0
  124.8660  123.8217   85.1878 H   0  0  0  0  0  0  0  0  0  0  0  0
  126.7073  122.5298   86.2705 H   0  0  0  0  0  0  0  0  0  0  0  0
  1  2  2  3
  2  3  1  0
  2  4  1  0
  4  5  2  3
  5  6  1  0
  5  7  1  0
  7  8  1  0
  8  9  2  0
  9 10  1  0
 10 11  2  0
 11 12  1  0
 12 13  2  0
 13 14  1  0
 13  8  1  0
  1 15  1  0
  3 16  1  0
  3 17  1  0
  6 18  1  0
  6 19  1  0
  7 20  1  0
  9 21  1  0
 10 22  1  0
 11 23  1  0
 12 24  1  0
M  END
>  <loss>  (19) 
0.7182765007019043

>  <score>  (19) 
-9.464452743530273

$$$$
MKWFJPZMYHPQIA-UHFFFAOYSA-N
     RDKit          3D

 24 24  0  0  0  0  0  0  0  0999 V2000
  120.7395  121.9198   92.1803 N   0  0  0  0  0  0  0  0  0  0  0  0
  120.8658  121.2058   91.1132 C   0  0  0  0  0  0  0  0  0  0  0  0
  119.9066  120.3307   90.7433 N   0  0  0  0  0  0  0  0  0  0  0  0
  121.9368  121.3409   90.2946 N   0  0  0  0  0  0  0  0  0  0  0  0
  122.7022  120.3460   89.9842 C   0  0  0  0  0  0  0  0  0  0  0  0
  122.5496  119.0542   90.4076 N   0  0  0  0  0  0  0  0  0  0  0  0
  123.7912  120.4011   89.1557 N   0  0  0  0  0  0  0  0  0  0  0  0
  124.0475  121.2908   88.0886 C   0  0  0  0  0  0  0  0  0  0  0  0
  123.0406  122.0485   87.4757 C   0  0  0  0  0  0  0  0  0  0  0  0
  123.3333  122.9466   86.4426 C   0  0  0  0  0  0  0  0  0  0  0  0
  124.6453  123.1151   86.0093 C   0  0  0  0  0  0  0  0  0  0  0  0
  125.6689  122.3913   86.6147 C   0  0  0  0  0  0  0  0  0  0  0  0
  125.3718  121.4956   87.6469 C   0  0  0  0  0  0  0  0  0  0  0  0
  126.6859  120.6288   88.3719 Cl  0  0  0  0  0  0  0  0  0  0  0  0
  121.4813  122.5826   92.4474 H   0  0  0  0  0  0  0  0  0  0  0  0
  120.0242  119.7687   89.8882 H   0  0  0  0  0  0  0  0  0  0  0  0
  119.0572  120.2250   91.3163 H   0  0  0  0  0  0  0  0  0  0  0  0
  123.2159  118.3303   90.1030 H   0  0  0  0  0  0  0  0  0  0  0  0
  121.7684  118.8055   91.0311 H   0  0  0  0  0  0  0  0  0  0  0  0
  124.5228  119.6985   89.3349 H   0  0  0  0  0  0  0  0  0  0  0  0
  121.9997  121.9354   87.8131 H   0  0  0  0  0  0  0  0  0  0  0  0
  122.5228  123.5217   85.9711 H   0  0  0  0  0  0  0  0  0  0  0  0
  124.8722  123.8165   85.1929 H   0  0  0  0  0  0  0  0  0  0  0  0
  126.7090  122.5235   86.2819 H   0  0  0  0  0  0  0  0  0  0  0  0
  1  2  2  3
  2  3  1  0
  2  4  1  0
  4  5  2  3
  5  6  1  0
  5  7  1  0
  7  8  1  0
  8  9  2  0
  9 10  1  0
 10 11  2  0
 11 12  1  0
 12 13  2  0
 13 14  1  0
 13  8  1  0
  1 15  1  0
  3 16  1  0
  3 17  1  0
  6 18  1  0
  6 19  1  0
  7 20  1  0
  9 21  1  0
 10 22  1  0
 11 23  1  0
 12 24  1  0
M  END
>  <loss>  (20) 
0.7183008790016174

>  <score>  (20) 
-9.498296737670898

$$$$
MKWFJPZMYHPQIA-UHFFFAOYSA-N
     RDKit          3D

 24 24  0  0  0  0  0  0  0  0999 V2000
  120.8311  122.0763   92.1966 N   0  0  0  0  0  0  0  0  0  0  0  0
  120.7579  121.4224   91.0940 C   0  0  0  0  0  0  0  0  0  0  0  0
  119.6523  120.7081   90.7976 N   0  0  0  0  0  0  0  0  0  0  0  0
  121.8184  121.5398   90.2675 N   0  0  0  0  0  0  0  0  0  0  0  0
  122.5773  120.5218   90.0248 C   0  0  0  0  0  0  0  0  0  0  0  0
  122.4126  119.2588   90.5268 N   0  0  0  0  0  0  0  0  0  0  0  0
  123.6746  120.5196   89.2074 N   0  0  0  0  0  0  0  0  0  0  0  0
  123.9664  121.3348   88.0900 C   0  0  0  0  0  0  0  0  0  0  0  0
  122.9936  122.0767   87.4079 C   0  0  0  0  0  0  0  0  0  0  0  0
  123.3319  122.8993   86.3264 C   0  0  0  0  0  0  0  0  0  0  0  0
  124.6562  123.0080   85.9120 C   0  0  0  0  0  0  0  0  0  0  0  0
  125.6474  122.2985   86.5834 C   0  0  0  0  0  0  0  0  0  0  0  0
  125.3047  121.4779   87.6627 C   0  0  0  0  0  0  0  0  0  0  0  0
  126.5802  120.6224   88.4673 Cl  0  0  0  0  0  0  0  0  0  0  0  0
  121.6775  122.6199   92.4177 H   0  0  0  0  0  0  0  0  0  0  0  0
  119.5991  120.1854   89.9116 H   0  0  0  0  0  0  0  0  0  0  0  0
  118.8616  120.6854   91.4572 H   0  0  0  0  0  0  0  0  0  0  0  0
  123.0752  118.5127   90.2717 H   0  0  0  0  0  0  0  0  0  0  0  0
  121.6260  119.0547   91.1597 H   0  0  0  0  0  0  0  0  0  0  0  0
  124.3944  119.8208   89.4408 H   0  0  0  0  0  0  0  0  0  0  0  0
  121.9433  122.0119   87.7282 H   0  0  0  0  0  0  0  0  0  0  0  0
  122.5466  123.4628   85.8012 H   0  0  0  0  0  0  0  0  0  0  0  0
  124.9178  123.6511   85.0588 H   0  0  0  0  0  0  0  0  0  0  0  0
  126.6973  122.3829   86.2661 H   0  0  0  0  0  0  0  0  0  0  0  0
  1  2  2  3
  2  3  1  0
  2  4  1  0
  4  5  2  3
  5  6  1  0
  5  7  1  0
  7  8  1  0
  8  9  2  0
  9 10  1  0
 10 11  2  0
 11 12  1  0
 12 13  2  0
 13 14  1  0
 13  8  1  0
  1 15  1  0
  3 16  1  0
  3 17  1  0
  6 18  1  0
  6 19  1  0
  7 20  1  0
  9 21  1  0
 10 22  1  0
 11 23  1  0
 12 24  1  0
M  END
>  <loss>  (21) 
0.7222172021865845

>  <score>  (21) 
-9.649340629577637

$$$$
MKWFJPZMYHPQIA-UHFFFAOYSA-N
     RDKit          3D

 24 24  0  0  0  0  0  0  0  0999 V2000
  120.8233  121.8892   92.2044 N   0  0  0  0  0  0  0  0  0  0  0  0
  120.8131  121.2151   91.1118 C   0  0  0  0  0  0  0  0  0  0  0  0
  119.7589  120.4308   90.8049 N   0  0  0  0  0  0  0  0  0  0  0  0
  121.8820  121.3834   90.3051 N   0  0  0  0  0  0  0  0  0  0  0  0
  122.6416  120.3815   90.0043 C   0  0  0  0  0  0  0  0  0  0  0  0
  122.4697  119.0890   90.4217 N   0  0  0  0  0  0  0  0  0  0  0  0
  123.7470  120.4298   89.1994 N   0  0  0  0  0  0  0  0  0  0  0  0
  124.0359  121.2928   88.1177 C   0  0  0  0  0  0  0  0  0  0  0  0
  123.0611  122.0619   87.4696 C   0  0  0  0  0  0  0  0  0  0  0  0
  123.3966  122.9308   86.4240 C   0  0  0  0  0  0  0  0  0  0  0  0
  124.7201  123.0593   86.0129 C   0  0  0  0  0  0  0  0  0  0  0  0
  125.7134  122.3230   86.6516 C   0  0  0  0  0  0  0  0  0  0  0  0
  125.3735  121.4561   87.6951 C   0  0  0  0  0  0  0  0  0  0  0  0
  126.6513  120.5687   88.4603 Cl  0  0  0  0  0  0  0  0  0  0  0  0
  121.6307  122.4862   92.4336 H   0  0  0  0  0  0  0  0  0  0  0  0
  119.7560  119.8922   89.9269 H   0  0  0  0  0  0  0  0  0  0  0  0
  118.9570  120.3708   91.4485 H   0  0  0  0  0  0  0  0  0  0  0  0
  123.1336  118.3594   90.1251 H   0  0  0  0  0  0  0  0  0  0  0  0
  121.6765  118.8461   91.0321 H   0  0  0  0  0  0  0  0  0  0  0  0
  124.4764  119.7347   89.4133 H   0  0  0  0  0  0  0  0  0  0  0  0
  122.0114  121.9818   87.7883 H   0  0  0  0  0  0  0  0  0  0  0  0
  122.6096  123.5152   85.9248 H   0  0  0  0  0  0  0  0  0  0  0  0
  124.9795  123.7389   85.1877 H   0  0  0  0  0  0  0  0  0  0  0  0
  126.7626  122.4225   86.3368 H   0  0  0  0  0  0  0  0  0  0  0  0
  1  2  2  3
  2  3  1  0
  2  4  1  0
  4  5  2  3
  5  6  1  0
  5  7  1  0
  7  8  1  0
  8  9  2  0
  9 10  1  0
 10 11  2  0
 11 12  1  0
 12 13  2  0
 13 14  1  0
 13  8  1  0
  1 15  1  0
  3 16  1  0
  3 17  1  0
  6 18  1  0
  6 19  1  0
  7 20  1  0
  9 21  1  0
 10 22  1  0
 11 23  1  0
 12 24  1  0
M  END
>  <loss>  (22) 
0.7171263694763184

>  <score>  (22) 
-9.797677040100098

$$$$
MKWFJPZMYHPQIA-UHFFFAOYSA-N
     RDKit          3D

 24 24  0  0  0  0  0  0  0  0999 V2000
  120.8235  121.8891   92.2048 N   0  0  0  0  0  0  0  0  0  0  0  0
  120.8130  121.2154   91.1119 C   0  0  0  0  0  0  0  0  0  0  0  0
  119.7585  120.4317   90.8046 N   0  0  0  0  0  0  0  0  0  0  0  0
  121.8820  121.3835   90.3053 N   0  0  0  0  0  0  0  0  0  0  0  0
  122.6413  120.3814   90.0043 C   0  0  0  0  0  0  0  0  0  0  0  0
  122.4689  119.0889   90.4213 N   0  0  0  0  0  0  0  0  0  0  0  0
  123.7468  120.4296   89.1995 N   0  0  0  0  0  0  0  0  0  0  0  0
  124.0360  121.2926   88.1179 C   0  0  0  0  0  0  0  0  0  0  0  0
  123.0613  122.0618   87.4696 C   0  0  0  0  0  0  0  0  0  0  0  0
  123.3971  122.9307   86.4241 C   0  0  0  0  0  0  0  0  0  0  0  0
  124.7206  123.0592   86.0133 C   0  0  0  0  0  0  0  0  0  0  0  0
  125.7138  122.3228   86.6523 C   0  0  0  0  0  0  0  0  0  0  0  0
  125.3736  121.4559   87.6957 C   0  0  0  0  0  0  0  0  0  0  0  0
  126.6513  120.5684   88.4611 Cl  0  0  0  0  0  0  0  0  0  0  0  0
  121.6311  122.4857   92.4343 H   0  0  0  0  0  0  0  0  0  0  0  0
  119.7554  119.8935   89.9264 H   0  0  0  0  0  0  0  0  0  0  0  0
  118.9565  120.3718   91.4482 H   0  0  0  0  0  0  0  0  0  0  0  0
  123.1325  118.3592   90.1246 H   0  0  0  0  0  0  0  0  0  0  0  0
  121.6755  118.8461   91.0316 H   0  0  0  0  0  0  0  0  0  0  0  0
  124.4760  119.7343   89.4134 H   0  0  0  0  0  0  0  0  0  0  0  0
  122.0115  121.9817   87.7880 H   0  0  0  0  0  0  0  0  0  0  0  0
  122.6103  123.5151   85.9247 H   0  0  0  0  0  0  0  0  0  0  0  0
  124.9803  123.7388   85.1882 H   0  0  0  0  0  0  0  0  0  0  0  0
  126.7631  122.4224   86.3377 H   0  0  0  0  0  0  0  0  0  0  0  0
  1  2  2  3
  2  3  1  0
  2  4  1  0
  4  5  2  3
  5  6  1  0
  5  7  1  0
  7  8  1  0
  8  9  2  0
  9 10  1  0
 10 11  2  0
 11 12  1  0
 12 13  2  0
 13 14  1  0
 13  8  1  0
  1 15  1  0
  3 16  1  0
  3 17  1  0
  6 18  1  0
  6 19  1  0
  7 20  1  0
  9 21  1  0
 10 22  1  0
 11 23  1  0
 12 24  1  0
M  END
>  <loss>  (23) 
0.7171281576156616

>  <score>  (23) 
-9.804938316345215

$$$$
MKWFJPZMYHPQIA-UHFFFAOYSA-N
     RDKit          3D

 24 24  0  0  0  0  0  0  0  0999 V2000
  119.7032  120.6486   90.7966 N   0  0  0  0  0  0  0  0  0  0  0  0
  120.7877  121.2751   91.0793 C   0  0  0  0  0  0  0  0  0  0  0  0
  120.9356  121.8740   92.2793 N   0  0  0  0  0  0  0  0  0  0  0  0
  121.7141  121.3220   90.0989 N   0  0  0  0  0  0  0  0  0  0  0  0
  122.6112  120.3966   89.9987 C   0  0  0  0  0  0  0  0  0  0  0  0
  122.7487  119.3173   90.8297 N   0  0  0  0  0  0  0  0  0  0  0  0
  123.5971  120.3382   89.0518 N   0  0  0  0  0  0  0  0  0  0  0  0
  123.9743  121.2977   88.0846 C   0  0  0  0  0  0  0  0  0  0  0  0
  123.0502  122.0792   87.3796 C   0  0  0  0  0  0  0  0  0  0  0  0
  123.4654  122.9941   86.4042 C   0  0  0  0  0  0  0  0  0  0  0  0
  124.8167  123.1368   86.1029 C   0  0  0  0  0  0  0  0  0  0  0  0
  125.7566  122.3590   86.7726 C   0  0  0  0  0  0  0  0  0  0  0  0
  125.3372  121.4470   87.7463 C   0  0  0  0  0  0  0  0  0  0  0  0
  126.5497  120.4989   88.5444 Cl  0  0  0  0  0  0  0  0  0  0  0  0
  119.5957  120.1932   89.8790 H   0  0  0  0  0  0  0  0  0  0  0  0
  121.8078  122.3752   92.5006 H   0  0  0  0  0  0  0  0  0  0  0  0
  120.1764  121.8299   92.9739 H   0  0  0  0  0  0  0  0  0  0  0  0
  123.5000  118.6324   90.6644 H   0  0  0  0  0  0  0  0  0  0  0  0
  122.1008  119.1901   91.6202 H   0  0  0  0  0  0  0  0  0  0  0  0
  124.1455  119.4663   89.0422 H   0  0  0  0  0  0  0  0  0  0  0  0
  121.9771  121.9722   87.5964 H   0  0  0  0  0  0  0  0  0  0  0  0
  122.7194  123.6035   85.8731 H   0  0  0  0  0  0  0  0  0  0  0  0
  125.1399  123.8601   85.3397 H   0  0  0  0  0  0  0  0  0  0  0  0
  126.8262  122.4614   86.5368 H   0  0  0  0  0  0  0  0  0  0  0  0
  1  2  2  3
  2  3  1  0
  2  4  1  0
  4  5  2  3
  5  6  1  0
  5  7  1  0
  7  8  1  0
  8  9  2  0
  9 10  1  0
 10 11  2  0
 11 12  1  0
 12 13  2  0
 13 14  1  0
 13  8  1  0
  1 15  1  0
  3 16  1  0
  3 17  1  0
  6 18  1  0
  6 19  1  0
  7 20  1  0
  9 21  1  0
 10 22  1  0
 11 23  1  0
 12 24  1  0
M  END
>  <loss>  (24) 
0.7216160297393799

>  <score>  (24) 
-10.639772415161133

$$$$
MKWFJPZMYHPQIA-UHFFFAOYSA-N
     RDKit          3D

 24 24  0  0  0  0  0  0  0  0999 V2000
  119.6980  120.6465   90.8009 N   0  0  0  0  0  0  0  0  0  0  0  0
  120.7774  121.2848   91.0767 C   0  0  0  0  0  0  0  0  0  0  0  0
  120.9189  121.9010   92.2687 N   0  0  0  0  0  0  0  0  0  0  0  0
  121.7051  121.3253   90.0972 N   0  0  0  0  0  0  0  0  0  0  0  0
  122.5977  120.3952   89.9997 C   0  0  0  0  0  0  0  0  0  0  0  0
  122.7289  119.3168   90.8328 N   0  0  0  0  0  0  0  0  0  0  0  0
  123.5842  120.3302   89.0539 N   0  0  0  0  0  0  0  0  0  0  0  0
  123.9701  121.2878   88.0882 C   0  0  0  0  0  0  0  0  0  0  0  0
  123.0528  122.0751   87.3807 C   0  0  0  0  0  0  0  0  0  0  0  0
  123.4765  122.9878   86.4070 C   0  0  0  0  0  0  0  0  0  0  0  0
  124.8295  123.1226   86.1098 C   0  0  0  0  0  0  0  0  0  0  0  0
  125.7627  122.3390   86.7821 C   0  0  0  0  0  0  0  0  0  0  0  0
  125.3349  121.4291   87.7542 C   0  0  0  0  0  0  0  0  0  0  0  0
  126.5392  120.4734   88.5556 Cl  0  0  0  0  0  0  0  0  0  0  0  0
  119.5954  120.1779   89.8894 H   0  0  0  0  0  0  0  0  0  0  0  0
  121.7870  122.4116   92.4846 H   0  0  0  0  0  0  0  0  0  0  0  0
  120.1589  121.8608   92.9627 H   0  0  0  0  0  0  0  0  0  0  0  0
  123.4770  118.6279   90.6695 H   0  0  0  0  0  0  0  0  0  0  0  0
  122.0795  119.1944   91.6229 H   0  0  0  0  0  0  0  0  0  0  0  0
  124.1258  119.4541   89.0440 H   0  0  0  0  0  0  0  0  0  0  0  0
  121.9784  121.9744   87.5942 H   0  0  0  0  0  0  0  0  0  0  0  0
  122.7357  123.6019   85.8738 H   0  0  0  0  0  0  0  0  0  0  0  0
  125.1594  123.8442   85.3480 H   0  0  0  0  0  0  0  0  0  0  0  0
  126.8336  122.4351   86.5497 H   0  0  0  0  0  0  0  0  0  0  0  0
  1  2  2  3
  2  3  1  0
  2  4  1  0
  4  5  2  3
  5  6  1  0
  5  7  1  0
  7  8  1  0
  8  9  2  0
  9 10  1  0
 10 11  2  0
 11 12  1  0
 12 13  2  0
 13 14  1  0
 13  8  1  0
  1 15  1  0
  3 16  1  0
  3 17  1  0
  6 18  1  0
  6 19  1  0
  7 20  1  0
  9 21  1  0
 10 22  1  0
 11 23  1  0
 12 24  1  0
M  END
>  <loss>  (25) 
0.7216472029685974

>  <score>  (25) 
-10.703316688537598

$$$$
