NQXJBWDIWFRTOQ-UHFFFAOYSA-N
     RDKit          3D

 25 25  0  0  0  0  0  0  0  0999 V2000
  126.5082  121.9165   86.3088 N   0  0  0  0  0  0  0  0  0  0  0  0
  125.1314  121.8180   86.6104 C   0  0  0  0  0  0  0  0  0  0  0  0
  124.6590  121.7113   87.9309 C   0  0  0  0  0  0  0  0  0  0  0  0
  125.5823  121.5061   89.0454 N   0  0  0  0  0  4  0  0  0  0  0  0
  126.7349  121.9440   88.9191 O   0  0  0  0  0  0  0  0  0  0  0  0
  125.1496  120.9325   90.0571 O   0  0  0  0  0  1  0  0  0  0  0  0
  123.2953  121.7786   88.2304 C   0  0  0  0  0  0  0  0  0  0  0  0
  122.3778  121.9806   87.2050 C   0  0  0  0  0  0  0  0  0  0  0  0
  121.0835  122.0319   87.5575 F   0  0  0  0  0  0  0  0  0  0  0  0
  122.7661  122.1115   85.8618 C   0  0  0  0  0  0  0  0  0  0  0  0
  121.8793  122.4063   84.8152 N   0  0  0  0  0  0  0  0  0  0  0  0
  121.2743  123.7226   84.6076 C   0  0  0  0  0  0  0  0  0  0  0  0
  119.9351  123.6518   83.8573 C   0  0  0  0  0  0  0  0  0  0  0  0
  118.9008  124.4055   84.4847 O   0  0  0  0  0  0  0  0  0  0  0  0
  124.1632  122.0673   85.6032 C   0  0  0  0  0  0  0  0  0  0  0  0
  124.7708  122.2993   83.7913 Br  0  0  0  0  0  0  0  0  0  0  0  0
  126.8165  121.9932   85.3290 H   0  0  0  0  0  0  0  0  0  0  0  0
  127.2035  121.9115   87.0686 H   0  0  0  0  0  0  0  0  0  0  0  0
  122.9504  121.6725   89.2695 H   0  0  0  0  0  0  0  0  0  0  0  0
  121.6403  121.6528   84.1549 H   0  0  0  0  0  0  0  0  0  0  0  0
  121.1030  124.1891   85.5890 H   0  0  0  0  0  0  0  0  0  0  0  0
  121.9685  124.3121   83.9906 H   0  0  0  0  0  0  0  0  0  0  0  0
  120.0834  124.0412   82.8393 H   0  0  0  0  0  0  0  0  0  0  0  0
  119.6169  122.5988   83.8540 H   0  0  0  0  0  0  0  0  0  0  0  0
  118.9934  124.3381   85.4681 H   0  0  0  0  0  0  0  0  0  0  0  0
  1  2  1  0
  2  3  2  0
  3  4  1  0
  4  5  2  0
  4  6  1  0
  3  7  1  0
  7  8  2  0
  8  9  1  0
  8 10  1  0
 10 11  1  0
 11 12  1  0
 12 13  1  0
 13 14  1  0
 10 15  2  0
 15 16  1  0
 15  2  1  0
  1 17  1  0
  1 18  1  0
  7 19  1  0
 11 20  1  0
 12 21  1  0
 12 22  1  0
 13 23  1  0
 13 24  1  0
 14 25  1  0
M  CHG  2   4   1   6  -1
M  END
>  <loss>  (1) 
0.3843322694301605

>  <score>  (1) 
4.472606182098389

$$$$
NQXJBWDIWFRTOQ-UHFFFAOYSA-N
     RDKit          3D

 25 25  0  0  0  0  0  0  0  0999 V2000
  126.4879  121.9341   86.2842 N   0  0  0  0  0  0  0  0  0  0  0  0
  125.1139  121.8315   86.5986 C   0  0  0  0  0  0  0  0  0  0  0  0
  124.6555  121.7202   87.9289 C   0  0  0  0  0  0  0  0  0  0  0  0
  125.5959  121.5195   89.0301 N   0  0  0  0  0  4  0  0  0  0  0  0
  126.7594  121.9221   88.8772 O   0  0  0  0  0  0  0  0  0  0  0  0
  125.1763  120.9306   90.0365 O   0  0  0  0  0  1  0  0  0  0  0  0
  123.2939  121.7672   88.2509 C   0  0  0  0  0  0  0  0  0  0  0  0
  122.3709  121.9654   87.2360 C   0  0  0  0  0  0  0  0  0  0  0  0
  121.0673  121.9986   87.5533 F   0  0  0  0  0  0  0  0  0  0  0  0
  122.7591  122.1301   85.8962 C   0  0  0  0  0  0  0  0  0  0  0  0
  121.7792  122.3926   84.8937 N   0  0  0  0  0  0  0  0  0  0  0  0
  121.2028  123.7493   84.9936 C   0  0  0  0  0  0  0  0  0  0  0  0
  120.2415  124.0856   83.8502 C   0  0  0  0  0  0  0  0  0  0  0  0
  118.8978  124.1381   84.3270 O   0  0  0  0  0  0  0  0  0  0  0  0
  124.1392  122.0752   85.5966 C   0  0  0  0  0  0  0  0  0  0  0  0
  124.7176  122.2516   83.7766 Br  0  0  0  0  0  0  0  0  0  0  0  0
  126.7869  122.0140   85.3018 H   0  0  0  0  0  0  0  0  0  0  0  0
  127.1903  121.9291   87.0375 H   0  0  0  0  0  0  0  0  0  0  0  0
  122.9618  121.6487   89.2929 H   0  0  0  0  0  0  0  0  0  0  0  0
  121.5024  121.7082   84.1755 H   0  0  0  0  0  0  0  0  0  0  0  0
  120.6548  123.8266   85.9443 H   0  0  0  0  0  0  0  0  0  0  0  0
  122.0381  124.4628   84.9370 H   0  0  0  0  0  0  0  0  0  0  0  0
  120.5131  125.0627   83.4242 H   0  0  0  0  0  0  0  0  0  0  0  0
  120.3159  123.3030   83.0807 H   0  0  0  0  0  0  0  0  0  0  0  0
  118.8988  124.1381   85.3170 H   0  0  0  0  0  0  0  0  0  0  0  0
  1  2  1  0
  2  3  2  0
  3  4  1  0
  4  5  2  0
  4  6  1  0
  3  7  1  0
  7  8  2  0
  8  9  1  0
  8 10  1  0
 10 11  1  0
 11 12  1  0
 12 13  1  0
 13 14  1  0
 10 15  2  0
 15 16  1  0
 15  2  1  0
  1 17  1  0
  1 18  1  0
  7 19  1  0
 11 20  1  0
 12 21  1  0
 12 22  1  0
 13 23  1  0
 13 24  1  0
 14 25  1  0
M  CHG  2   4   1   6  -1
M  END
>  <loss>  (2) 
0.3842388689517975

>  <score>  (2) 
4.455908298492432

$$$$
NQXJBWDIWFRTOQ-UHFFFAOYSA-N
     RDKit          3D

 25 25  0  0  0  0  0  0  0  0999 V2000
  126.3564  121.9913   86.0807 N   0  0  0  0  0  0  0  0  0  0  0  0
  125.0056  121.8684   86.4777 C   0  0  0  0  0  0  0  0  0  0  0  0
  124.6303  121.7538   87.8335 C   0  0  0  0  0  0  0  0  0  0  0  0
  125.6384  121.5707   88.8763 N   0  0  0  0  0  4  0  0  0  0  0  0
  125.3310  120.8849   89.8634 O   0  0  0  0  0  0  0  0  0  0  0  0
  126.7281  122.1397   88.7203 O   0  0  0  0  0  1  0  0  0  0  0  0
  123.2900  121.7807   88.2372 C   0  0  0  0  0  0  0  0  0  0  0  0
  122.3044  121.9618   87.2795 C   0  0  0  0  0  0  0  0  0  0  0  0
  121.0220  121.9758   87.6750 F   0  0  0  0  0  0  0  0  0  0  0  0
  122.6084  122.1288   85.9184 C   0  0  0  0  0  0  0  0  0  0  0  0
  121.5657  122.3733   84.9765 N   0  0  0  0  0  0  0  0  0  0  0  0
  121.2802  123.8114   84.7945 C   0  0  0  0  0  0  0  0  0  0  0  0
  120.2995  124.0954   83.6533 C   0  0  0  0  0  0  0  0  0  0  0  0
  118.9666  124.1910   84.1530 O   0  0  0  0  0  0  0  0  0  0  0  0
  123.9685  122.0943   85.5361 C   0  0  0  0  0  0  0  0  0  0  0  0
  124.4331  122.2745   83.6841 Br  0  0  0  0  0  0  0  0  0  0  0  0
  126.5942  122.0730   85.0819 H   0  0  0  0  0  0  0  0  0  0  0  0
  127.1030  121.9992   86.7902 H   0  0  0  0  0  0  0  0  0  0  0  0
  123.0233  121.6600   89.2975 H   0  0  0  0  0  0  0  0  0  0  0  0
  121.0644  121.6258   84.4757 H   0  0  0  0  0  0  0  0  0  0  0  0
  120.8514  124.2031   85.7287 H   0  0  0  0  0  0  0  0  0  0  0  0
  122.2305  124.3018   84.5366 H   0  0  0  0  0  0  0  0  0  0  0  0
  120.5732  125.0439   83.1682 H   0  0  0  0  0  0  0  0  0  0  0  0
  120.3493  123.2704   82.9274 H   0  0  0  0  0  0  0  0  0  0  0  0
  118.9844  124.1897   85.1429 H   0  0  0  0  0  0  0  0  0  0  0  0
  1  2  1  0
  2  3  2  0
  3  4  1  0
  4  5  2  0
  4  6  1  0
  3  7  1  0
  7  8  2  0
  8  9  1  0
  8 10  1  0
 10 11  1  0
 11 12  1  0
 12 13  1  0
 13 14  1  0
 10 15  2  0
 15 16  1  0
 15  2  1  0
  1 17  1  0
  1 18  1  0
  7 19  1  0
 11 20  1  0
 12 21  1  0
 12 22  1  0
 13 23  1  0
 13 24  1  0
 14 25  1  0
M  CHG  2   4   1   6  -1
M  END
>  <loss>  (3) 
0.3948572278022766

>  <score>  (3) 
4.435481071472168

$$$$
NQXJBWDIWFRTOQ-UHFFFAOYSA-N
     RDKit          3D

 25 25  0  0  0  0  0  0  0  0999 V2000
  126.5092  121.8387   86.2624 N   0  0  0  0  0  0  0  0  0  0  0  0
  125.1438  121.9811   86.5968 C   0  0  0  0  0  0  0  0  0  0  0  0
  124.6661  121.7688   87.9069 C   0  0  0  0  0  0  0  0  0  0  0  0
  125.5937  121.5612   89.0171 N   0  0  0  0  0  4  0  0  0  0  0  0
  126.7581  121.9596   88.8684 O   0  0  0  0  0  0  0  0  0  0  0  0
  125.1708  120.9682   90.0217 O   0  0  0  0  0  1  0  0  0  0  0  0
  123.2991  121.7788   88.2100 C   0  0  0  0  0  0  0  0  0  0  0  0
  122.3841  121.9631   87.1848 C   0  0  0  0  0  0  0  0  0  0  0  0
  121.0781  121.9867   87.4938 F   0  0  0  0  0  0  0  0  0  0  0  0
  122.7859  122.1234   85.8496 C   0  0  0  0  0  0  0  0  0  0  0  0
  121.8254  122.2670   84.8105 N   0  0  0  0  0  0  0  0  0  0  0  0
  120.7161  123.1947   85.1282 C   0  0  0  0  0  0  0  0  0  0  0  0
  120.0293  123.7987   83.8932 C   0  0  0  0  0  0  0  0  0  0  0  0
  119.1306  124.8544   84.2388 O   0  0  0  0  0  0  0  0  0  0  0  0
  124.1731  122.1200   85.5720 C   0  0  0  0  0  0  0  0  0  0  0  0
  124.7709  122.3751   83.7666 Br  0  0  0  0  0  0  0  0  0  0  0  0
  126.8222  122.0018   85.2947 H   0  0  0  0  0  0  0  0  0  0  0  0
  127.1915  121.5717   86.9863 H   0  0  0  0  0  0  0  0  0  0  0  0
  122.9562  121.6425   89.2463 H   0  0  0  0  0  0  0  0  0  0  0  0
  121.8956  121.7675   83.9125 H   0  0  0  0  0  0  0  0  0  0  0  0
  119.9611  122.6442   85.7085 H   0  0  0  0  0  0  0  0  0  0  0  0
  121.1550  124.0332   85.6887 H   0  0  0  0  0  0  0  0  0  0  0  0
  120.8009  124.1970   83.2179 H   0  0  0  0  0  0  0  0  0  0  0  0
  119.4454  123.0028   83.4079 H   0  0  0  0  0  0  0  0  0  0  0  0
  119.0694  124.9263   85.2243 H   0  0  0  0  0  0  0  0  0  0  0  0
  1  2  1  0
  2  3  2  0
  3  4  1  0
  4  5  2  0
  4  6  1  0
  3  7  1  0
  7  8  2  0
  8  9  1  0
  8 10  1  0
 10 11  1  0
 11 12  1  0
 12 13  1  0
 13 14  1  0
 10 15  2  0
 15 16  1  0
 15  2  1  0
  1 17  1  0
  1 18  1  0
  7 19  1  0
 11 20  1  0
 12 21  1  0
 12 22  1  0
 13 23  1  0
 13 24  1  0
 14 25  1  0
M  CHG  2   4   1   6  -1
M  END
>  <loss>  (4) 
0.38564565777778625

>  <score>  (4) 
4.363880157470703

$$$$
NQXJBWDIWFRTOQ-UHFFFAOYSA-N
     RDKit          3D

 25 25  0  0  0  0  0  0  0  0999 V2000
  126.5035  121.8257   86.2705 N   0  0  0  0  0  0  0  0  0  0  0  0
  125.1385  121.9737   86.6033 C   0  0  0  0  0  0  0  0  0  0  0  0
  124.6602  121.7596   87.9147 C   0  0  0  0  0  0  0  0  0  0  0  0
  125.5892  121.5595   89.0256 N   0  0  0  0  0  4  0  0  0  0  0  0
  126.7505  121.9654   88.8771 O   0  0  0  0  0  0  0  0  0  0  0  0
  125.1669  120.9696   90.0322 O   0  0  0  0  0  1  0  0  0  0  0  0
  123.2927  121.7525   88.2153 C   0  0  0  0  0  0  0  0  0  0  0  0
  122.3807  121.9341   87.1879 C   0  0  0  0  0  0  0  0  0  0  0  0
  121.0714  121.9437   87.4825 F   0  0  0  0  0  0  0  0  0  0  0  0
  122.7837  122.1049   85.8541 C   0  0  0  0  0  0  0  0  0  0  0  0
  121.7955  122.3374   84.8556 N   0  0  0  0  0  0  0  0  0  0  0  0
  120.9040  123.4515   85.2148 C   0  0  0  0  0  0  0  0  0  0  0  0
  120.2344  124.0186   83.9589 C   0  0  0  0  0  0  0  0  0  0  0  0
  118.9253  124.4951   84.2550 O   0  0  0  0  0  0  0  0  0  0  0  0
  124.1694  122.1111   85.5760 C   0  0  0  0  0  0  0  0  0  0  0  0
  124.7674  122.2824   83.7610 Br  0  0  0  0  0  0  0  0  0  0  0  0
  126.8186  121.9896   85.3037 H   0  0  0  0  0  0  0  0  0  0  0  0
  127.1837  121.5539   86.9948 H   0  0  0  0  0  0  0  0  0  0  0  0
  122.9482  121.6051   89.2495 H   0  0  0  0  0  0  0  0  0  0  0  0
  121.7144  121.7912   83.9861 H   0  0  0  0  0  0  0  0  0  0  0  0
  120.1300  123.0889   85.9072 H   0  0  0  0  0  0  0  0  0  0  0  0
  121.4958  124.2445   85.6955 H   0  0  0  0  0  0  0  0  0  0  0  0
  120.8414  124.8496   83.5705 H   0  0  0  0  0  0  0  0  0  0  0  0
  120.1568  123.2179   83.2086 H   0  0  0  0  0  0  0  0  0  0  0  0
  118.8044  124.5391   85.2366 H   0  0  0  0  0  0  0  0  0  0  0  0
  1  2  1  0
  2  3  2  0
  3  4  1  0
  4  5  2  0
  4  6  1  0
  3  7  1  0
  7  8  2  0
  8  9  1  0
  8 10  1  0
 10 11  1  0
 11 12  1  0
 12 13  1  0
 13 14  1  0
 10 15  2  0
 15 16  1  0
 15  2  1  0
  1 17  1  0
  1 18  1  0
  7 19  1  0
 11 20  1  0
 12 21  1  0
 12 22  1  0
 13 23  1  0
 13 24  1  0
 14 25  1  0
M  CHG  2   4   1   6  -1
M  END
>  <loss>  (5) 
0.3859807848930359

>  <score>  (5) 
4.359358310699463

$$$$
NQXJBWDIWFRTOQ-UHFFFAOYSA-N
     RDKit          3D

 25 25  0  0  0  0  0  0  0  0999 V2000
  126.4822  121.7671   86.2586 N   0  0  0  0  0  0  0  0  0  0  0  0
  125.1310  121.9858   86.6050 C   0  0  0  0  0  0  0  0  0  0  0  0
  124.6422  121.7514   87.9036 C   0  0  0  0  0  0  0  0  0  0  0  0
  125.5539  121.4510   89.0062 N   0  0  0  0  0  4  0  0  0  0  0  0
  126.7098  121.8967   88.9370 O   0  0  0  0  0  0  0  0  0  0  0  0
  125.1037  120.7948   89.9560 O   0  0  0  0  0  1  0  0  0  0  0  0
  123.2768  121.8150   88.1979 C   0  0  0  0  0  0  0  0  0  0  0  0
  122.3692  122.0913   87.1814 C   0  0  0  0  0  0  0  0  0  0  0  0
  121.0733  122.1352   87.5245 F   0  0  0  0  0  0  0  0  0  0  0  0
  122.7739  122.3222   85.8558 C   0  0  0  0  0  0  0  0  0  0  0  0
  121.8754  122.5050   84.7840 N   0  0  0  0  0  0  0  0  0  0  0  0
  120.4680  122.8313   85.0481 C   0  0  0  0  0  0  0  0  0  0  0  0
  119.8861  123.5507   83.8237 C   0  0  0  0  0  0  0  0  0  0  0  0
  119.3272  124.8068   84.2075 O   0  0  0  0  0  0  0  0  0  0  0  0
  124.1664  122.2205   85.5912 C   0  0  0  0  0  0  0  0  0  0  0  0
  124.7793  122.4697   83.7847 Br  0  0  0  0  0  0  0  0  0  0  0  0
  126.8035  121.9500   85.2972 H   0  0  0  0  0  0  0  0  0  0  0  0
  127.1466  121.4247   86.9672 H   0  0  0  0  0  0  0  0  0  0  0  0
  122.9232  121.6476   89.2260 H   0  0  0  0  0  0  0  0  0  0  0  0
  122.2071  122.4094   83.8136 H   0  0  0  0  0  0  0  0  0  0  0  0
  119.9034  121.9060   85.2356 H   0  0  0  0  0  0  0  0  0  0  0  0
  120.3960  123.4822   85.9318 H   0  0  0  0  0  0  0  0  0  0  0  0
  120.6858  123.7189   83.0874 H   0  0  0  0  0  0  0  0  0  0  0  0
  119.0948  122.9260   83.3837 H   0  0  0  0  0  0  0  0  0  0  0  0
  119.3001  124.8679   85.1952 H   0  0  0  0  0  0  0  0  0  0  0  0
  1  2  1  0
  2  3  2  0
  3  4  1  0
  4  5  2  0
  4  6  1  0
  3  7  1  0
  7  8  2  0
  8  9  1  0
  8 10  1  0
 10 11  1  0
 11 12  1  0
 12 13  1  0
 13 14  1  0
 10 15  2  0
 15 16  1  0
 15  2  1  0
  1 17  1  0
  1 18  1  0
  7 19  1  0
 11 20  1  0
 12 21  1  0
 12 22  1  0
 13 23  1  0
 13 24  1  0
 14 25  1  0
M  CHG  2   4   1   6  -1
M  END
>  <loss>  (6) 
0.3785777986049652

>  <score>  (6) 
4.29124116897583

$$$$
NQXJBWDIWFRTOQ-UHFFFAOYSA-N
     RDKit          3D

 25 25  0  0  0  0  0  0  0  0999 V2000
  126.3470  121.8458   86.0560 N   0  0  0  0  0  0  0  0  0  0  0  0
  125.0104  121.9935   86.4894 C   0  0  0  0  0  0  0  0  0  0  0  0
  124.6302  121.7747   87.8317 C   0  0  0  0  0  0  0  0  0  0  0  0
  125.6386  121.5697   88.8701 N   0  0  0  0  0  4  0  0  0  0  0  0
  125.3146  120.8863   89.8517 O   0  0  0  0  0  0  0  0  0  0  0  0
  126.7419  122.1169   88.7194 O   0  0  0  0  0  1  0  0  0  0  0  0
  123.2887  121.7674   88.2326 C   0  0  0  0  0  0  0  0  0  0  0  0
  122.3034  121.9537   87.2762 C   0  0  0  0  0  0  0  0  0  0  0  0
  121.0195  121.9630   87.6668 F   0  0  0  0  0  0  0  0  0  0  0  0
  122.6068  122.1293   85.9169 C   0  0  0  0  0  0  0  0  0  0  0  0
  121.5477  122.3663   84.9951 N   0  0  0  0  0  0  0  0  0  0  0  0
  121.2887  123.8034   84.8145 C   0  0  0  0  0  0  0  0  0  0  0  0
  120.3038  124.0222   83.6616 C   0  0  0  0  0  0  0  0  0  0  0  0
  118.9823  124.2173   84.1555 O   0  0  0  0  0  0  0  0  0  0  0  0
  123.9682  122.1356   85.5370 C   0  0  0  0  0  0  0  0  0  0  0  0
  124.4305  122.3133   83.6835 Br  0  0  0  0  0  0  0  0  0  0  0  0
  126.5899  122.0132   85.0691 H   0  0  0  0  0  0  0  0  0  0  0  0
  127.0785  121.5708   86.7269 H   0  0  0  0  0  0  0  0  0  0  0  0
  123.0215  121.6164   89.2889 H   0  0  0  0  0  0  0  0  0  0  0  0
  121.0255  121.6211   84.5125 H   0  0  0  0  0  0  0  0  0  0  0  0
  120.8612  124.2149   85.7408 H   0  0  0  0  0  0  0  0  0  0  0  0
  122.2353  124.3123   84.5798 H   0  0  0  0  0  0  0  0  0  0  0  0
  120.6098  124.9105   83.0894 H   0  0  0  0  0  0  0  0  0  0  0  0
  120.3114  123.1305   83.0174 H   0  0  0  0  0  0  0  0  0  0  0  0
  118.9963  124.2153   85.1454 H   0  0  0  0  0  0  0  0  0  0  0  0
  1  2  1  0
  2  3  2  0
  3  4  1  0
  4  5  2  0
  4  6  1  0
  3  7  1  0
  7  8  2  0
  8  9  1  0
  8 10  1  0
 10 11  1  0
 11 12  1  0
 12 13  1  0
 13 14  1  0
 10 15  2  0
 15 16  1  0
 15  2  1  0
  1 17  1  0
  1 18  1  0
  7 19  1  0
 11 20  1  0
 12 21  1  0
 12 22  1  0
 13 23  1  0
 13 24  1  0
 14 25  1  0
M  CHG  2   4   1   6  -1
M  END
>  <loss>  (7) 
0.39357179403305054

>  <score>  (7) 
4.335662841796875

$$$$
NQXJBWDIWFRTOQ-UHFFFAOYSA-N
     RDKit          3D

 25 25  0  0  0  0  0  0  0  0999 V2000
  126.3704  122.0322   86.0955 N   0  0  0  0  0  0  0  0  0  0  0  0
  125.0222  121.8860   86.4919 C   0  0  0  0  0  0  0  0  0  0  0  0
  124.6478  121.7504   87.8409 C   0  0  0  0  0  0  0  0  0  0  0  0
  125.6536  121.5638   88.8851 N   0  0  0  0  0  4  0  0  0  0  0  0
  125.3421  120.8616   89.8577 O   0  0  0  0  0  0  0  0  0  0  0  0
  126.7630  122.0950   88.7214 O   0  0  0  0  0  1  0  0  0  0  0  0
  123.3072  121.7703   88.2362 C   0  0  0  0  0  0  0  0  0  0  0  0
  122.3136  121.9530   87.2805 C   0  0  0  0  0  0  0  0  0  0  0  0
  121.0466  121.9586   87.7236 F   0  0  0  0  0  0  0  0  0  0  0  0
  122.6018  122.1102   85.9151 C   0  0  0  0  0  0  0  0  0  0  0  0
  121.6344  122.3869   84.9371 N   0  0  0  0  0  0  0  0  0  0  0  0
  120.6227  123.4361   85.0672 C   0  0  0  0  0  0  0  0  0  0  0  0
  120.2911  124.1142   83.7286 C   0  0  0  0  0  0  0  0  0  0  0  0
  118.9688  124.6441   83.6814 O   0  0  0  0  0  0  0  0  0  0  0  0
  123.9779  122.1141   85.5584 C   0  0  0  0  0  0  0  0  0  0  0  0
  124.4483  122.3843   83.7114 Br  0  0  0  0  0  0  0  0  0  0  0  0
  126.6062  122.1289   85.0975 H   0  0  0  0  0  0  0  0  0  0  0  0
  127.1175  122.0420   86.8045 H   0  0  0  0  0  0  0  0  0  0  0  0
  123.0401  121.6424   89.2956 H   0  0  0  0  0  0  0  0  0  0  0  0
  121.6365  121.8186   84.0780 H   0  0  0  0  0  0  0  0  0  0  0  0
  119.7028  122.9889   85.4719 H   0  0  0  0  0  0  0  0  0  0  0  0
  121.0305  124.2077   85.7368 H   0  0  0  0  0  0  0  0  0  0  0  0
  121.0035  124.9366   83.5671 H   0  0  0  0  0  0  0  0  0  0  0  0
  120.3640  123.3454   82.9453 H   0  0  0  0  0  0  0  0  0  0  0  0
  118.6339  124.7783   84.6033 H   0  0  0  0  0  0  0  0  0  0  0  0
  1  2  1  0
  2  3  2  0
  3  4  1  0
  4  5  2  0
  4  6  1  0
  3  7  1  0
  7  8  2  0
  8  9  1  0
  8 10  1  0
 10 11  1  0
 11 12  1  0
 12 13  1  0
 13 14  1  0
 10 15  2  0
 15 16  1  0
 15  2  1  0
  1 17  1  0
  1 18  1  0
  7 19  1  0
 11 20  1  0
 12 21  1  0
 12 22  1  0
 13 23  1  0
 13 24  1  0
 14 25  1  0
M  CHG  2   4   1   6  -1
M  END
>  <loss>  (8) 
0.40519532561302185

>  <score>  (8) 
4.376119136810303

$$$$
NQXJBWDIWFRTOQ-UHFFFAOYSA-N
     RDKit          3D

 25 25  0  0  0  0  0  0  0  0999 V2000
  126.3637  121.8850   86.0604 N   0  0  0  0  0  0  0  0  0  0  0  0
  125.0258  122.0394   86.4842 C   0  0  0  0  0  0  0  0  0  0  0  0
  124.6270  121.7987   87.8121 C   0  0  0  0  0  0  0  0  0  0  0  0
  125.6163  121.5607   88.8618 N   0  0  0  0  0  4  0  0  0  0  0  0
  125.2616  120.8993   89.8499 O   0  0  0  0  0  0  0  0  0  0  0  0
  126.7572  122.0100   88.6828 O   0  0  0  0  0  1  0  0  0  0  0  0
  123.2799  121.7967   88.1865 C   0  0  0  0  0  0  0  0  0  0  0  0
  122.3009  122.0121   87.2228 C   0  0  0  0  0  0  0  0  0  0  0  0
  121.0270  121.9947   87.6420 F   0  0  0  0  0  0  0  0  0  0  0  0
  122.6144  122.2446   85.8730 C   0  0  0  0  0  0  0  0  0  0  0  0
  121.6460  122.3663   84.8547 N   0  0  0  0  0  0  0  0  0  0  0  0
  120.4428  123.1793   85.0736 C   0  0  0  0  0  0  0  0  0  0  0  0
  119.9578  123.7236   83.7230 C   0  0  0  0  0  0  0  0  0  0  0  0
  119.5025  125.0687   83.8667 O   0  0  0  0  0  0  0  0  0  0  0  0
  123.9922  122.2103   85.5271 C   0  0  0  0  0  0  0  0  0  0  0  0
  124.4840  122.4650   83.6847 Br  0  0  0  0  0  0  0  0  0  0  0  0
  126.6179  122.0704   85.0796 H   0  0  0  0  0  0  0  0  0  0  0  0
  127.0855  121.5868   86.7320 H   0  0  0  0  0  0  0  0  0  0  0  0
  122.9966  121.6261   89.2356 H   0  0  0  0  0  0  0  0  0  0  0  0
  121.7832  121.8836   83.9552 H   0  0  0  0  0  0  0  0  0  0  0  0
  119.6551  122.5587   85.5258 H   0  0  0  0  0  0  0  0  0  0  0  0
  120.6756  124.0148   85.7501 H   0  0  0  0  0  0  0  0  0  0  0  0
  120.7877  123.6963   83.0015 H   0  0  0  0  0  0  0  0  0  0  0  0
  119.1258  123.1002   83.3635 H   0  0  0  0  0  0  0  0  0  0  0  0
  119.4273  125.2907   84.8285 H   0  0  0  0  0  0  0  0  0  0  0  0
  1  2  1  0
  2  3  2  0
  3  4  1  0
  4  5  2  0
  4  6  1  0
  3  7  1  0
  7  8  2  0
  8  9  1  0
  8 10  1  0
 10 11  1  0
 11 12  1  0
 12 13  1  0
 13 14  1  0
 10 15  2  0
 15 16  1  0
 15  2  1  0
  1 17  1  0
  1 18  1  0
  7 19  1  0
 11 20  1  0
 12 21  1  0
 12 22  1  0
 13 23  1  0
 13 24  1  0
 14 25  1  0
M  CHG  2   4   1   6  -1
M  END
>  <loss>  (9) 
0.3995351493358612

>  <score>  (9) 
4.298868179321289

$$$$
NQXJBWDIWFRTOQ-UHFFFAOYSA-N
     RDKit          3D

 25 25  0  0  0  0  0  0  0  0999 V2000
  126.5686  121.9904   86.2436 N   0  0  0  0  0  0  0  0  0  0  0  0
  125.1840  121.8719   86.5008 C   0  0  0  0  0  0  0  0  0  0  0  0
  124.6726  121.7498   87.8107 C   0  0  0  0  0  0  0  0  0  0  0  0
  125.5691  121.5540   88.9488 N   0  0  0  0  0  4  0  0  0  0  0  0
  125.1768  120.8282   89.8754 O   0  0  0  0  0  0  0  0  0  0  0  0
  126.6539  122.1526   88.9281 O   0  0  0  0  0  1  0  0  0  0  0  0
  123.2985  121.7810   88.0767 C   0  0  0  0  0  0  0  0  0  0  0  0
  122.4158  121.9741   87.0255 C   0  0  0  0  0  0  0  0  0  0  0  0
  121.1001  121.9921   87.2891 F   0  0  0  0  0  0  0  0  0  0  0  0
  122.8570  122.1489   85.7035 C   0  0  0  0  0  0  0  0  0  0  0  0
  121.9163  122.4055   84.6626 N   0  0  0  0  0  0  0  0  0  0  0  0
  121.3607  123.7736   84.7136 C   0  0  0  0  0  0  0  0  0  0  0  0
  120.2678  124.0235   83.6705 C   0  0  0  0  0  0  0  0  0  0  0  0
  118.9770  123.9566   84.2744 O   0  0  0  0  0  0  0  0  0  0  0  0
  124.2487  122.1098   85.4607 C   0  0  0  0  0  0  0  0  0  0  0  0
  124.8994  122.3005   83.6667 Br  0  0  0  0  0  0  0  0  0  0  0  0
  126.9068  122.0778   85.2747 H   0  0  0  0  0  0  0  0  0  0  0  0
  127.2395  121.9894   87.0252 H   0  0  0  0  0  0  0  0  0  0  0  0
  122.9251  121.6544   89.1036 H   0  0  0  0  0  0  0  0  0  0  0  0
  121.6521  121.7102   83.9502 H   0  0  0  0  0  0  0  0  0  0  0  0
  120.9333  123.9396   85.7134 H   0  0  0  0  0  0  0  0  0  0  0  0
  122.1850  124.4680   84.4941 H   0  0  0  0  0  0  0  0  0  0  0  0
  120.4098  125.0210   83.2291 H   0  0  0  0  0  0  0  0  0  0  0  0
  120.3365  123.2508   82.8906 H   0  0  0  0  0  0  0  0  0  0  0  0
  119.0730  123.9615   85.2597 H   0  0  0  0  0  0  0  0  0  0  0  0
  1  2  1  0
  2  3  2  0
  3  4  1  0
  4  5  2  0
  4  6  1  0
  3  7  1  0
  7  8  2  0
  8  9  1  0
  8 10  1  0
 10 11  1  0
 11 12  1  0
 12 13  1  0
 13 14  1  0
 10 15  2  0
 15 16  1  0
 15  2  1  0
  1 17  1  0
  1 18  1  0
  7 19  1  0
 11 20  1  0
 12 21  1  0
 12 22  1  0
 13 23  1  0
 13 24  1  0
 14 25  1  0
M  CHG  2   4   1   6  -1
M  END
>  <loss>  (10) 
0.39283543825149536

>  <score>  (10) 
4.184261322021484

$$$$
NQXJBWDIWFRTOQ-UHFFFAOYSA-N
     RDKit          3D

 25 25  0  0  0  0  0  0  0  0999 V2000
  126.3744  121.8887   86.0565 N   0  0  0  0  0  0  0  0  0  0  0  0
  125.0315  122.0067   86.4798 C   0  0  0  0  0  0  0  0  0  0  0  0
  124.6452  121.7895   87.8189 C   0  0  0  0  0  0  0  0  0  0  0  0
  125.6475  121.6026   88.8660 N   0  0  0  0  0  4  0  0  0  0  0  0
  125.3215  120.9259   89.8521 O   0  0  0  0  0  0  0  0  0  0  0  0
  126.7462  122.1612   88.7221 O   0  0  0  0  0  1  0  0  0  0  0  0
  123.3011  121.7749   88.2114 C   0  0  0  0  0  0  0  0  0  0  0  0
  122.3174  121.9390   87.2483 C   0  0  0  0  0  0  0  0  0  0  0  0
  121.0342  121.9391   87.6425 F   0  0  0  0  0  0  0  0  0  0  0  0
  122.6274  122.1026   85.8892 C   0  0  0  0  0  0  0  0  0  0  0  0
  121.5981  122.2250   84.9153 N   0  0  0  0  0  0  0  0  0  0  0  0
  120.7931  123.4623   85.0297 C   0  0  0  0  0  0  0  0  0  0  0  0
  119.9704  123.7947   83.7749 C   0  0  0  0  0  0  0  0  0  0  0  0
  119.3591  125.0835   83.8573 O   0  0  0  0  0  0  0  0  0  0  0  0
  123.9931  122.1242   85.5209 C   0  0  0  0  0  0  0  0  0  0  0  0
  124.4660  122.3850   83.6796 Br  0  0  0  0  0  0  0  0  0  0  0  0
  126.6200  122.0547   85.0701 H   0  0  0  0  0  0  0  0  0  0  0  0
  127.1078  121.6368   86.7345 H   0  0  0  0  0  0  0  0  0  0  0  0
  123.0297  121.6354   89.2682 H   0  0  0  0  0  0  0  0  0  0  0  0
  121.4271  121.5127   84.1912 H   0  0  0  0  0  0  0  0  0  0  0  0
  120.1002  123.3464   85.8762 H   0  0  0  0  0  0  0  0  0  0  0  0
  121.5031  124.2904   85.1717 H   0  0  0  0  0  0  0  0  0  0  0  0
  120.6356  123.7733   82.8991 H   0  0  0  0  0  0  0  0  0  0  0  0
  119.1697  123.0456   83.6874 H   0  0  0  0  0  0  0  0  0  0  0  0
  119.2409  125.3326   84.8081 H   0  0  0  0  0  0  0  0  0  0  0  0
  1  2  1  0
  2  3  2  0
  3  4  1  0
  4  5  2  0
  4  6  1  0
  3  7  1  0
  7  8  2  0
  8  9  1  0
  8 10  1  0
 10 11  1  0
 11 12  1  0
 12 13  1  0
 13 14  1  0
 10 15  2  0
 15 16  1  0
 15  2  1  0
  1 17  1  0
  1 18  1  0
  7 19  1  0
 11 20  1  0
 12 21  1  0
 12 22  1  0
 13 23  1  0
 13 24  1  0
 14 25  1  0
M  CHG  2   4   1   6  -1
M  END
>  <loss>  (11) 
0.40190452337265015

>  <score>  (11) 
4.225532531738281

$$$$
NQXJBWDIWFRTOQ-UHFFFAOYSA-N
     RDKit          3D

 25 25  0  0  0  0  0  0  0  0999 V2000
  126.5613  121.9669   86.2589 N   0  0  0  0  0  0  0  0  0  0  0  0
  125.1764  121.8629   86.5186 C   0  0  0  0  0  0  0  0  0  0  0  0
  124.6654  121.7377   87.8230 C   0  0  0  0  0  0  0  0  0  0  0  0
  125.5559  121.5184   88.9614 N   0  0  0  0  0  4  0  0  0  0  0  0
  125.1619  120.7547   89.8546 O   0  0  0  0  0  0  0  0  0  0  0  0
  126.6592  122.0862   88.9507 O   0  0  0  0  0  1  0  0  0  0  0  0
  123.2934  121.7994   88.0831 C   0  0  0  0  0  0  0  0  0  0  0  0
  122.4062  122.0144   87.0340 C   0  0  0  0  0  0  0  0  0  0  0  0
  121.1021  122.0594   87.3489 F   0  0  0  0  0  0  0  0  0  0  0  0
  122.8337  122.1639   85.7047 C   0  0  0  0  0  0  0  0  0  0  0  0
  121.9776  122.4719   84.6365 N   0  0  0  0  0  0  0  0  0  0  0  0
  121.4104  123.8010   84.4054 C   0  0  0  0  0  0  0  0  0  0  0  0
  120.1090  123.7604   83.5893 C   0  0  0  0  0  0  0  0  0  0  0  0
  118.9431  123.9646   84.3832 O   0  0  0  0  0  0  0  0  0  0  0  0
  124.2379  122.1248   85.4867 C   0  0  0  0  0  0  0  0  0  0  0  0
  124.8982  122.3820   83.6969 Br  0  0  0  0  0  0  0  0  0  0  0  0
  126.8982  122.0572   85.2898 H   0  0  0  0  0  0  0  0  0  0  0  0
  127.2340  121.9524   87.0388 H   0  0  0  0  0  0  0  0  0  0  0  0
  122.9183  121.6789   89.1101 H   0  0  0  0  0  0  0  0  0  0  0  0
  121.7344  121.7191   83.9769 H   0  0  0  0  0  0  0  0  0  0  0  0
  121.2000  124.2673   85.3793 H   0  0  0  0  0  0  0  0  0  0  0  0
  122.1461  124.3785   83.8265 H   0  0  0  0  0  0  0  0  0  0  0  0
  120.1523  124.5477   82.8223 H   0  0  0  0  0  0  0  0  0  0  0  0
  120.0316  122.7566   83.1461 H   0  0  0  0  0  0  0  0  0  0  0  0
  119.1853  123.9222   85.3422 H   0  0  0  0  0  0  0  0  0  0  0  0
  1  2  1  0
  2  3  2  0
  3  4  1  0
  4  5  2  0
  4  6  1  0
  3  7  1  0
  7  8  2  0
  8  9  1  0
  8 10  1  0
 10 11  1  0
 11 12  1  0
 12 13  1  0
 13 14  1  0
 10 15  2  0
 15 16  1  0
 15  2  1  0
  1 17  1  0
  1 18  1  0
  7 19  1  0
 11 20  1  0
 12 21  1  0
 12 22  1  0
 13 23  1  0
 13 24  1  0
 14 25  1  0
M  CHG  2   4   1   6  -1
M  END
>  <loss>  (12) 
0.39112651348114014

>  <score>  (12) 
4.136938095092773

$$$$
NQXJBWDIWFRTOQ-UHFFFAOYSA-N
     RDKit          3D

 25 25  0  0  0  0  0  0  0  0999 V2000
  126.5572  121.8372   86.2084 N   0  0  0  0  0  0  0  0  0  0  0  0
  125.1854  121.9930   86.5087 C   0  0  0  0  0  0  0  0  0  0  0  0
  124.6726  121.7676   87.8050 C   0  0  0  0  0  0  0  0  0  0  0  0
  125.5717  121.5465   88.9363 N   0  0  0  0  0  4  0  0  0  0  0  0
  125.1883  120.7736   89.8259 O   0  0  0  0  0  0  0  0  0  0  0  0
  126.6452  122.1684   88.9508 O   0  0  0  0  0  1  0  0  0  0  0  0
  123.2980  121.7687   88.0712 C   0  0  0  0  0  0  0  0  0  0  0  0
  122.4136  121.9703   87.0235 C   0  0  0  0  0  0  0  0  0  0  0  0
  121.0974  121.9876   87.2854 F   0  0  0  0  0  0  0  0  0  0  0  0
  122.8514  122.1533   85.7024 C   0  0  0  0  0  0  0  0  0  0  0  0
  121.8906  122.4061   84.6823 N   0  0  0  0  0  0  0  0  0  0  0  0
  121.3378  123.7666   84.7742 C   0  0  0  0  0  0  0  0  0  0  0  0
  120.2784  123.9809   83.6883 C   0  0  0  0  0  0  0  0  0  0  0  0
  118.9695  123.9699   84.2495 O   0  0  0  0  0  0  0  0  0  0  0  0
  124.2437  122.1509   85.4591 C   0  0  0  0  0  0  0  0  0  0  0  0
  124.8885  122.3383   83.6619 Br  0  0  0  0  0  0  0  0  0  0  0  0
  126.8978  122.0098   85.2518 H   0  0  0  0  0  0  0  0  0  0  0  0
  127.2166  121.5511   86.9461 H   0  0  0  0  0  0  0  0  0  0  0  0
  122.9264  121.6122   89.0946 H   0  0  0  0  0  0  0  0  0  0  0  0
  121.6155  121.7189   83.9660 H   0  0  0  0  0  0  0  0  0  0  0  0
  120.8775  123.9059   85.7635 H   0  0  0  0  0  0  0  0  0  0  0  0
  122.1500  124.4947   84.6323 H   0  0  0  0  0  0  0  0  0  0  0  0
  120.4534  124.9511   83.2003 H   0  0  0  0  0  0  0  0  0  0  0  0
  120.3547  123.1644   82.9552 H   0  0  0  0  0  0  0  0  0  0  0  0
  119.0340  123.9705   85.2374 H   0  0  0  0  0  0  0  0  0  0  0  0
  1  2  1  0
  2  3  2  0
  3  4  1  0
  4  5  2  0
  4  6  1  0
  3  7  1  0
  7  8  2  0
  8  9  1  0
  8 10  1  0
 10 11  1  0
 11 12  1  0
 12 13  1  0
 13 14  1  0
 10 15  2  0
 15 16  1  0
 15  2  1  0
  1 17  1  0
  1 18  1  0
  7 19  1  0
 11 20  1  0
 12 21  1  0
 12 22  1  0
 13 23  1  0
 13 24  1  0
 14 25  1  0
M  CHG  2   4   1   6  -1
M  END
>  <loss>  (13) 
0.3919587731361389

>  <score>  (13) 
4.086495876312256

$$$$
NQXJBWDIWFRTOQ-UHFFFAOYSA-N
     RDKit          3D

 25 25  0  0  0  0  0  0  0  0999 V2000
  126.5589  121.8131   86.2079 N   0  0  0  0  0  0  0  0  0  0  0  0
  125.1883  121.9782   86.5092 C   0  0  0  0  0  0  0  0  0  0  0  0
  124.6743  121.7656   87.8054 C   0  0  0  0  0  0  0  0  0  0  0  0
  125.5698  121.5333   88.9368 N   0  0  0  0  0  4  0  0  0  0  0  0
  125.1983  120.7255   89.8006 O   0  0  0  0  0  0  0  0  0  0  0  0
  126.6257  122.1836   88.9825 O   0  0  0  0  0  1  0  0  0  0  0  0
  123.3004  121.7986   88.0745 C   0  0  0  0  0  0  0  0  0  0  0  0
  122.4149  122.0067   87.0282 C   0  0  0  0  0  0  0  0  0  0  0  0
  121.1022  122.0520   87.3047 F   0  0  0  0  0  0  0  0  0  0  0  0
  122.8529  122.1689   85.7047 C   0  0  0  0  0  0  0  0  0  0  0  0
  121.9215  122.3372   84.6430 N   0  0  0  0  0  0  0  0  0  0  0  0
  121.3981  123.7150   84.5026 C   0  0  0  0  0  0  0  0  0  0  0  0
  120.1568  123.8267   83.6033 C   0  0  0  0  0  0  0  0  0  0  0  0
  118.9611  124.0314   84.3583 O   0  0  0  0  0  0  0  0  0  0  0  0
  124.2463  122.1419   85.4617 C   0  0  0  0  0  0  0  0  0  0  0  0
  124.8937  122.3986   83.6736 Br  0  0  0  0  0  0  0  0  0  0  0  0
  126.8989  121.9771   85.2496 H   0  0  0  0  0  0  0  0  0  0  0  0
  127.2179  121.5286   86.9466 H   0  0  0  0  0  0  0  0  0  0  0  0
  122.9293  121.6614   89.1009 H   0  0  0  0  0  0  0  0  0  0  0  0
  121.6351  121.5654   84.0239 H   0  0  0  0  0  0  0  0  0  0  0  0
  121.1342  124.0878   85.5033 H   0  0  0  0  0  0  0  0  0  0  0  0
  122.1910  124.3079   84.0233 H   0  0  0  0  0  0  0  0  0  0  0  0
  120.2920  124.6752   82.9165 H   0  0  0  0  0  0  0  0  0  0  0  0
  120.0514  122.8799   83.0533 H   0  0  0  0  0  0  0  0  0  0  0  0
  119.1711  123.9955   85.3251 H   0  0  0  0  0  0  0  0  0  0  0  0
  1  2  1  0
  2  3  2  0
  3  4  1  0
  4  5  2  0
  4  6  1  0
  3  7  1  0
  7  8  2  0
  8  9  1  0
  8 10  1  0
 10 11  1  0
 11 12  1  0
 12 13  1  0
 13 14  1  0
 10 15  2  0
 15 16  1  0
 15  2  1  0
  1 17  1  0
  1 18  1  0
  7 19  1  0
 11 20  1  0
 12 21  1  0
 12 22  1  0
 13 23  1  0
 13 24  1  0
 14 25  1  0
M  CHG  2   4   1   6  -1
M  END
>  <loss>  (14) 
0.3912590444087982

>  <score>  (14) 
3.9351234436035156

$$$$
NQXJBWDIWFRTOQ-UHFFFAOYSA-N
     RDKit          3D

 25 25  0  0  0  0  0  0  0  0999 V2000
  126.5762  121.8112   86.2495 N   0  0  0  0  0  0  0  0  0  0  0  0
  125.2099  121.9959   86.5538 C   0  0  0  0  0  0  0  0  0  0  0  0
  124.6887  121.7569   87.8390 C   0  0  0  0  0  0  0  0  0  0  0  0
  125.5744  121.4882   88.9705 N   0  0  0  0  0  4  0  0  0  0  0  0
  125.9051  122.4473   89.6850 O   0  0  0  0  0  0  0  0  0  0  0  0
  125.9145  120.3122   89.1619 O   0  0  0  0  0  1  0  0  0  0  0  0
  123.3138  121.7859   88.0919 C   0  0  0  0  0  0  0  0  0  0  0  0
  122.4301  122.0312   87.0468 C   0  0  0  0  0  0  0  0  0  0  0  0
  121.1238  122.0426   87.3507 F   0  0  0  0  0  0  0  0  0  0  0  0
  122.8682  122.2642   85.7322 C   0  0  0  0  0  0  0  0  0  0  0  0
  121.9977  122.4159   84.6327 N   0  0  0  0  0  0  0  0  0  0  0  0
  121.3928  123.7228   84.3450 C   0  0  0  0  0  0  0  0  0  0  0  0
  120.0531  123.5040   83.6291 C   0  0  0  0  0  0  0  0  0  0  0  0
  118.9928  124.1100   84.3680 O   0  0  0  0  0  0  0  0  0  0  0  0
  124.2702  122.1981   85.5100 C   0  0  0  0  0  0  0  0  0  0  0  0
  124.9304  122.4519   83.7208 Br  0  0  0  0  0  0  0  0  0  0  0  0
  126.9212  121.9963   85.2969 H   0  0  0  0  0  0  0  0  0  0  0  0
  127.2278  121.4912   86.9802 H   0  0  0  0  0  0  0  0  0  0  0  0
  122.9341  121.6158   89.1102 H   0  0  0  0  0  0  0  0  0  0  0  0
  121.7858  121.6080   84.0301 H   0  0  0  0  0  0  0  0  0  0  0  0
  121.2240  124.2667   85.2861 H   0  0  0  0  0  0  0  0  0  0  0  0
  122.0656  124.3119   83.7045 H   0  0  0  0  0  0  0  0  0  0  0  0
  120.0997  123.9533   82.6262 H   0  0  0  0  0  0  0  0  0  0  0  0
  119.8620  122.4237   83.5490 H   0  0  0  0  0  0  0  0  0  0  0  0
  119.1671  124.0103   85.3374 H   0  0  0  0  0  0  0  0  0  0  0  0
  1  2  1  0
  2  3  2  0
  3  4  1  0
  4  5  2  0
  4  6  1  0
  3  7  1  0
  7  8  2  0
  8  9  1  0
  8 10  1  0
 10 11  1  0
 11 12  1  0
 12 13  1  0
 13 14  1  0
 10 15  2  0
 15 16  1  0
 15  2  1  0
  1 17  1  0
  1 18  1  0
  7 19  1  0
 11 20  1  0
 12 21  1  0
 12 22  1  0
 13 23  1  0
 13 24  1  0
 14 25  1  0
M  CHG  2   4   1   6  -1
M  END
>  <loss>  (15) 
0.4005357623100281

>  <score>  (15) 
3.944129467010498

$$$$
NQXJBWDIWFRTOQ-UHFFFAOYSA-N
     RDKit          3D

 25 25  0  0  0  0  0  0  0  0999 V2000
  126.4830  121.8607   86.1560 N   0  0  0  0  0  0  0  0  0  0  0  0
  125.1123  122.0196   86.4594 C   0  0  0  0  0  0  0  0  0  0  0  0
  124.6008  121.7896   87.7554 C   0  0  0  0  0  0  0  0  0  0  0  0
  125.5010  121.5598   88.8841 N   0  0  0  0  0  4  0  0  0  0  0  0
  125.1684  120.6999   89.7120 O   0  0  0  0  0  0  0  0  0  0  0  0
  126.5227  122.2598   88.9594 O   0  0  0  0  0  1  0  0  0  0  0  0
  123.2267  121.7940   88.0238 C   0  0  0  0  0  0  0  0  0  0  0  0
  122.3412  122.0037   86.9787 C   0  0  0  0  0  0  0  0  0  0  0  0
  121.0256  122.0242   87.2428 F   0  0  0  0  0  0  0  0  0  0  0  0
  122.7775  122.1918   85.6578 C   0  0  0  0  0  0  0  0  0  0  0  0
  121.8158  122.4528   84.6405 N   0  0  0  0  0  0  0  0  0  0  0  0
  121.3452  123.8464   84.6749 C   0  0  0  0  0  0  0  0  0  0  0  0
  120.4117  124.1184   83.4909 C   0  0  0  0  0  0  0  0  0  0  0  0
  119.0546  123.8815   83.8521 O   0  0  0  0  0  0  0  0  0  0  0  0
  124.1693  122.1859   85.4122 C   0  0  0  0  0  0  0  0  0  0  0  0
  124.8118  122.3800   83.6148 Br  0  0  0  0  0  0  0  0  0  0  0  0
  126.8226  122.0369   85.1997 H   0  0  0  0  0  0  0  0  0  0  0  0
  127.1427  121.5687   86.8912 H   0  0  0  0  0  0  0  0  0  0  0  0
  122.8562  121.6337   89.0471 H   0  0  0  0  0  0  0  0  0  0  0  0
  121.4889  121.7502   83.9620 H   0  0  0  0  0  0  0  0  0  0  0  0
  120.8013  124.0233   85.6146 H   0  0  0  0  0  0  0  0  0  0  0  0
  122.2124  124.5201   84.6108 H   0  0  0  0  0  0  0  0  0  0  0  0
  120.5236  125.1666   83.1767 H   0  0  0  0  0  0  0  0  0  0  0  0
  120.6807  123.4409   82.6670 H   0  0  0  0  0  0  0  0  0  0  0  0
  118.9733  123.8674   84.8386 H   0  0  0  0  0  0  0  0  0  0  0  0
  1  2  1  0
  2  3  2  0
  3  4  1  0
  4  5  2  0
  4  6  1  0
  3  7  1  0
  7  8  2  0
  8  9  1  0
  8 10  1  0
 10 11  1  0
 11 12  1  0
 12 13  1  0
 13 14  1  0
 10 15  2  0
 15 16  1  0
 15  2  1  0
  1 17  1  0
  1 18  1  0
  7 19  1  0
 11 20  1  0
 12 21  1  0
 12 22  1  0
 13 23  1  0
 13 24  1  0
 14 25  1  0
M  CHG  2   4   1   6  -1
M  END
>  <loss>  (16) 
0.4243014454841614

>  <score>  (16) 
3.9364030361175537

$$$$
NQXJBWDIWFRTOQ-UHFFFAOYSA-N
     RDKit          3D

 25 25  0  0  0  0  0  0  0  0999 V2000
  126.4962  122.0054   86.1827 N   0  0  0  0  0  0  0  0  0  0  0  0
  125.1112  121.8926   86.4401 C   0  0  0  0  0  0  0  0  0  0  0  0
  124.6003  121.7609   87.7492 C   0  0  0  0  0  0  0  0  0  0  0  0
  125.4967  121.5490   88.8845 N   0  0  0  0  0  4  0  0  0  0  0  0
  125.1587  120.7166   89.7402 O   0  0  0  0  0  0  0  0  0  0  0  0
  126.5246  122.2392   88.9344 O   0  0  0  0  0  1  0  0  0  0  0  0
  123.2266  121.7976   88.0168 C   0  0  0  0  0  0  0  0  0  0  0  0
  122.3442  122.0059   86.9684 C   0  0  0  0  0  0  0  0  0  0  0  0
  121.0288  122.0291   87.2334 F   0  0  0  0  0  0  0  0  0  0  0  0
  122.7852  122.1908   85.6477 C   0  0  0  0  0  0  0  0  0  0  0  0
  121.8450  122.4629   84.6102 N   0  0  0  0  0  0  0  0  0  0  0  0
  121.3733  123.8630   84.6138 C   0  0  0  0  0  0  0  0  0  0  0  0
  120.3758  124.1698   83.4933 C   0  0  0  0  0  0  0  0  0  0  0  0
  119.0457  123.8701   83.9134 O   0  0  0  0  0  0  0  0  0  0  0  0
  124.1764  122.1459   85.4031 C   0  0  0  0  0  0  0  0  0  0  0  0
  124.8266  122.3500   83.6104 Br  0  0  0  0  0  0  0  0  0  0  0  0
  126.8340  122.1001   85.2143 H   0  0  0  0  0  0  0  0  0  0  0  0
  127.1678  121.9929   86.9635 H   0  0  0  0  0  0  0  0  0  0  0  0
  122.8535  121.6633   89.0428 H   0  0  0  0  0  0  0  0  0  0  0  0
  121.5282  121.7574   83.9299 H   0  0  0  0  0  0  0  0  0  0  0  0
  120.8864  124.0648   85.5794 H   0  0  0  0  0  0  0  0  0  0  0  0
  122.2528  124.5032   84.4508 H   0  0  0  0  0  0  0  0  0  0  0  0
  120.4413  125.2363   83.2320 H   0  0  0  0  0  0  0  0  0  0  0  0
  120.6211  123.5496   82.6185 H   0  0  0  0  0  0  0  0  0  0  0  0
  119.0062  123.8612   84.9026 H   0  0  0  0  0  0  0  0  0  0  0  0
  1  2  1  0
  2  3  2  0
  3  4  1  0
  4  5  2  0
  4  6  1  0
  3  7  1  0
  7  8  2  0
  8  9  1  0
  8 10  1  0
 10 11  1  0
 11 12  1  0
 12 13  1  0
 13 14  1  0
 10 15  2  0
 15 16  1  0
 15  2  1  0
  1 17  1  0
  1 18  1  0
  7 19  1  0
 11 20  1  0
 12 21  1  0
 12 22  1  0
 13 23  1  0
 13 24  1  0
 14 25  1  0
M  CHG  2   4   1   6  -1
M  END
>  <loss>  (17) 
0.4254504144191742

>  <score>  (17) 
3.938459634780884

$$$$
NQXJBWDIWFRTOQ-UHFFFAOYSA-N
     RDKit          3D

 25 25  0  0  0  0  0  0  0  0999 V2000
  126.4846  121.8447   86.1633 N   0  0  0  0  0  0  0  0  0  0  0  0
  125.1136  122.0101   86.4625 C   0  0  0  0  0  0  0  0  0  0  0  0
  124.5942  121.7781   87.7532 C   0  0  0  0  0  0  0  0  0  0  0  0
  125.4848  121.5238   88.8837 N   0  0  0  0  0  4  0  0  0  0  0  0
  125.1038  120.7091   89.7368 O   0  0  0  0  0  0  0  0  0  0  0  0
  126.5466  122.1636   88.9397 O   0  0  0  0  0  1  0  0  0  0  0  0
  123.2196  121.8119   88.0180 C   0  0  0  0  0  0  0  0  0  0  0  0
  122.3386  122.0406   86.9722 C   0  0  0  0  0  0  0  0  0  0  0  0
  121.0250  122.0864   87.2448 F   0  0  0  0  0  0  0  0  0  0  0  0
  122.7818  122.2229   85.6530 C   0  0  0  0  0  0  0  0  0  0  0  0
  121.8548  122.4123   84.5911 N   0  0  0  0  0  0  0  0  0  0  0  0
  121.4096  123.8128   84.4115 C   0  0  0  0  0  0  0  0  0  0  0  0
  120.2730  123.9848   83.3916 C   0  0  0  0  0  0  0  0  0  0  0  0
  118.9840  123.8581   83.9948 O   0  0  0  0  0  0  0  0  0  0  0  0
  124.1759  122.1947   85.4145 C   0  0  0  0  0  0  0  0  0  0  0  0
  124.8306  122.4783   83.6332 Br  0  0  0  0  0  0  0  0  0  0  0  0
  126.8287  122.0233   85.2090 H   0  0  0  0  0  0  0  0  0  0  0  0
  127.1400  121.5456   86.8994 H   0  0  0  0  0  0  0  0  0  0  0  0
  122.8443  121.6592   89.0407 H   0  0  0  0  0  0  0  0  0  0  0  0
  121.5212  121.6399   83.9968 H   0  0  0  0  0  0  0  0  0  0  0  0
  121.0615  124.1918   85.3837 H   0  0  0  0  0  0  0  0  0  0  0  0
  122.2727  124.3722   84.0215 H   0  0  0  0  0  0  0  0  0  0  0  0
  120.3542  124.9823   82.9352 H   0  0  0  0  0  0  0  0  0  0  0  0
  120.3727  123.1905   82.6371 H   0  0  0  0  0  0  0  0  0  0  0  0
  119.0784  123.8674   84.9803 H   0  0  0  0  0  0  0  0  0  0  0  0
  1  2  1  0
  2  3  2  0
  3  4  1  0
  4  5  2  0
  4  6  1  0
  3  7  1  0
  7  8  2  0
  8  9  1  0
  8 10  1  0
 10 11  1  0
 11 12  1  0
 12 13  1  0
 13 14  1  0
 10 15  2  0
 15 16  1  0
 15  2  1  0
  1 17  1  0
  1 18  1  0
  7 19  1  0
 11 20  1  0
 12 21  1  0
 12 22  1  0
 13 23  1  0
 13 24  1  0
 14 25  1  0
M  CHG  2   4   1   6  -1
M  END
>  <loss>  (18) 
0.42511987686157227

>  <score>  (18) 
3.900646209716797

$$$$
NQXJBWDIWFRTOQ-UHFFFAOYSA-N
     RDKit          3D

 25 25  0  0  0  0  0  0  0  0999 V2000
  126.4935  121.9991   86.2204 N   0  0  0  0  0  0  0  0  0  0  0  0
  125.1069  121.8961   86.4708 C   0  0  0  0  0  0  0  0  0  0  0  0
  124.5878  121.7600   87.7710 C   0  0  0  0  0  0  0  0  0  0  0  0
  125.4709  121.5279   88.9125 N   0  0  0  0  0  4  0  0  0  0  0  0
  125.1195  120.6759   89.7412 O   0  0  0  0  0  0  0  0  0  0  0  0
  126.5278  122.1757   88.9675 O   0  0  0  0  0  1  0  0  0  0  0  0
  123.2144  121.8226   88.0234 C   0  0  0  0  0  0  0  0  0  0  0  0
  122.3340  122.0495   86.9711 C   0  0  0  0  0  0  0  0  0  0  0  0
  121.0281  122.0948   87.2786 F   0  0  0  0  0  0  0  0  0  0  0  0
  122.7698  122.2104   85.6458 C   0  0  0  0  0  0  0  0  0  0  0  0
  121.9209  122.5304   84.5754 N   0  0  0  0  0  0  0  0  0  0  0  0
  121.4110  123.8773   84.3159 C   0  0  0  0  0  0  0  0  0  0  0  0
  120.2032  123.8850   83.3659 C   0  0  0  0  0  0  0  0  0  0  0  0
  118.9529  123.8393   84.0487 O   0  0  0  0  0  0  0  0  0  0  0  0
  124.1752  122.1699   85.4359 C   0  0  0  0  0  0  0  0  0  0  0  0
  124.8468  122.4422   83.6525 Br  0  0  0  0  0  0  0  0  0  0  0  0
  126.8365  122.0977   85.2542 H   0  0  0  0  0  0  0  0  0  0  0  0
  127.1615  121.9757   87.0041 H   0  0  0  0  0  0  0  0  0  0  0  0
  122.8328  121.6934   89.0470 H   0  0  0  0  0  0  0  0  0  0  0  0
  121.6404  121.7737   83.9355 H   0  0  0  0  0  0  0  0  0  0  0  0
  121.1085  124.3288   85.2723 H   0  0  0  0  0  0  0  0  0  0  0  0
  122.2167  124.4483   83.8313 H   0  0  0  0  0  0  0  0  0  0  0  0
  120.2387  124.8039   82.7622 H   0  0  0  0  0  0  0  0  0  0  0  0
  120.2699  122.9801   82.7440 H   0  0  0  0  0  0  0  0  0  0  0  0
  119.1103  123.8450   85.0261 H   0  0  0  0  0  0  0  0  0  0  0  0
  1  2  1  0
  2  3  2  0
  3  4  1  0
  4  5  2  0
  4  6  1  0
  3  7  1  0
  7  8  2  0
  8  9  1  0
  8 10  1  0
 10 11  1  0
 11 12  1  0
 12 13  1  0
 13 14  1  0
 10 15  2  0
 15 16  1  0
 15  2  1  0
  1 17  1  0
  1 18  1  0
  7 19  1  0
 11 20  1  0
 12 21  1  0
 12 22  1  0
 13 23  1  0
 13 24  1  0
 14 25  1  0
M  CHG  2   4   1   6  -1
M  END
>  <loss>  (19) 
0.4263993501663208

>  <score>  (19) 
3.8698949813842773

$$$$
NQXJBWDIWFRTOQ-UHFFFAOYSA-N
     RDKit          3D

 25 25  0  0  0  0  0  0  0  0999 V2000
  126.4350  122.0378   86.0843 N   0  0  0  0  0  0  0  0  0  0  0  0
  125.0602  121.9140   86.3875 C   0  0  0  0  0  0  0  0  0  0  0  0
  124.5947  121.7700   87.7122 C   0  0  0  0  0  0  0  0  0  0  0  0
  125.5302  121.5564   88.8151 N   0  0  0  0  0  4  0  0  0  0  0  0
  126.5860  122.2081   88.8119 O   0  0  0  0  0  0  0  0  0  0  0  0
  125.2208  120.7128   89.6684 O   0  0  0  0  0  1  0  0  0  0  0  0
  123.2306  121.7957   88.0262 C   0  0  0  0  0  0  0  0  0  0  0  0
  122.3119  122.0051   87.0096 C   0  0  0  0  0  0  0  0  0  0  0  0
  121.0061  122.0177   87.3190 F   0  0  0  0  0  0  0  0  0  0  0  0
  122.7068  122.2019   85.6761 C   0  0  0  0  0  0  0  0  0  0  0  0
  121.7304  122.4747   84.6729 N   0  0  0  0  0  0  0  0  0  0  0  0
  121.2945  123.8863   84.6629 C   0  0  0  0  0  0  0  0  0  0  0  0
  120.4186  124.2421   83.4584 C   0  0  0  0  0  0  0  0  0  0  0  0
  119.0566  123.9028   83.7142 O   0  0  0  0  0  0  0  0  0  0  0  0
  124.0893  122.1680   85.3845 C   0  0  0  0  0  0  0  0  0  0  0  0
  124.6771  122.3885   83.5723 Br  0  0  0  0  0  0  0  0  0  0  0  0
  126.7392  122.1413   85.1057 H   0  0  0  0  0  0  0  0  0  0  0  0
  127.1326  122.0246   86.8419 H   0  0  0  0  0  0  0  0  0  0  0  0
  122.8932  121.6519   89.0633 H   0  0  0  0  0  0  0  0  0  0  0  0
  121.3673  121.7624   84.0236 H   0  0  0  0  0  0  0  0  0  0  0  0
  120.7209  124.0810   85.5811 H   0  0  0  0  0  0  0  0  0  0  0  0
  122.2009  124.5064   84.6007 H   0  0  0  0  0  0  0  0  0  0  0  0
  120.4922  125.3221   83.2634 H   0  0  0  0  0  0  0  0  0  0  0  0
  120.7686  123.6745   82.5836 H   0  0  0  0  0  0  0  0  0  0  0  0
  118.9040  123.8647   84.6916 H   0  0  0  0  0  0  0  0  0  0  0  0
  1  2  1  0
  2  3  2  0
  3  4  1  0
  4  5  2  0
  4  6  1  0
  3  7  1  0
  7  8  2  0
  8  9  1  0
  8 10  1  0
 10 11  1  0
 11 12  1  0
 12 13  1  0
 13 14  1  0
 10 15  2  0
 15 16  1  0
 15  2  1  0
  1 17  1  0
  1 18  1  0
  7 19  1  0
 11 20  1  0
 12 21  1  0
 12 22  1  0
 13 23  1  0
 13 24  1  0
 14 25  1  0
M  CHG  2   4   1   6  -1
M  END
>  <loss>  (20) 
0.4541385769844055

>  <score>  (20) 
3.9131340980529785

$$$$
NQXJBWDIWFRTOQ-UHFFFAOYSA-N
     RDKit          3D

 25 25  0  0  0  0  0  0  0  0999 V2000
  126.5026  121.8209   86.2227 N   0  0  0  0  0  0  0  0  0  0  0  0
  125.1336  122.0175   86.5067 C   0  0  0  0  0  0  0  0  0  0  0  0
  124.5868  121.7609   87.7777 C   0  0  0  0  0  0  0  0  0  0  0  0
  125.4491  121.4593   88.9191 N   0  0  0  0  0  4  0  0  0  0  0  0
  125.7358  122.3904   89.6876 O   0  0  0  0  0  0  0  0  0  0  0  0
  125.8144  120.2841   89.0632 O   0  0  0  0  0  1  0  0  0  0  0  0
  123.2082  121.8027   88.0072 C   0  0  0  0  0  0  0  0  0  0  0  0
  122.3463  122.0792   86.9518 C   0  0  0  0  0  0  0  0  0  0  0  0
  121.0351  122.1017   87.2332 F   0  0  0  0  0  0  0  0  0  0  0  0
  122.8103  122.3315   85.6497 C   0  0  0  0  0  0  0  0  0  0  0  0
  121.9614  122.5153   84.5385 N   0  0  0  0  0  0  0  0  0  0  0  0
  121.3443  123.8245   84.2895 C   0  0  0  0  0  0  0  0  0  0  0  0
  120.1306  123.6354   83.3694 C   0  0  0  0  0  0  0  0  0  0  0  0
  118.9251  123.9332   84.0734 O   0  0  0  0  0  0  0  0  0  0  0  0
  124.2151  122.2515   85.4508 C   0  0  0  0  0  0  0  0  0  0  0  0
  124.9098  122.5307   83.6785 Br  0  0  0  0  0  0  0  0  0  0  0  0
  126.8667  122.0197   85.2799 H   0  0  0  0  0  0  0  0  0  0  0  0
  127.1372  121.4788   86.9583 H   0  0  0  0  0  0  0  0  0  0  0  0
  122.8085  121.6183   89.0153 H   0  0  0  0  0  0  0  0  0  0  0  0
  121.7737  121.7292   83.8999 H   0  0  0  0  0  0  0  0  0  0  0  0
  121.0195  124.2668   85.2428 H   0  0  0  0  0  0  0  0  0  0  0  0
  122.0733  124.4952   83.8114 H   0  0  0  0  0  0  0  0  0  0  0  0
  120.2220  124.3092   82.5048 H   0  0  0  0  0  0  0  0  0  0  0  0
  120.0980  122.5896   83.0298 H   0  0  0  0  0  0  0  0  0  0  0  0
  119.0934  123.8916   85.0481 H   0  0  0  0  0  0  0  0  0  0  0  0
  1  2  1  0
  2  3  2  0
  3  4  1  0
  4  5  2  0
  4  6  1  0
  3  7  1  0
  7  8  2  0
  8  9  1  0
  8 10  1  0
 10 11  1  0
 11 12  1  0
 12 13  1  0
 13 14  1  0
 10 15  2  0
 15 16  1  0
 15  2  1  0
  1 17  1  0
  1 18  1  0
  7 19  1  0
 11 20  1  0
 12 21  1  0
 12 22  1  0
 13 23  1  0
 13 24  1  0
 14 25  1  0
M  CHG  2   4   1   6  -1
M  END
>  <loss>  (21) 
0.43656060099601746

>  <score>  (21) 
3.8030011653900146

$$$$
NQXJBWDIWFRTOQ-UHFFFAOYSA-N
     RDKit          3D

 25 25  0  0  0  0  0  0  0  0999 V2000
  126.4215  121.8439   86.0818 N   0  0  0  0  0  0  0  0  0  0  0  0
  125.0664  122.0310   86.4314 C   0  0  0  0  0  0  0  0  0  0  0  0
  124.5841  121.7746   87.7283 C   0  0  0  0  0  0  0  0  0  0  0  0
  125.5030  121.4836   88.8274 N   0  0  0  0  0  4  0  0  0  0  0  0
  126.5637  122.1257   88.8781 O   0  0  0  0  0  0  0  0  0  0  0  0
  125.1493  120.6339   89.6569 O   0  0  0  0  0  1  0  0  0  0  0  0
  123.2180  121.8068   88.0244 C   0  0  0  0  0  0  0  0  0  0  0  0
  122.3036  122.0730   87.0113 C   0  0  0  0  0  0  0  0  0  0  0  0
  121.0075  122.0865   87.3560 F   0  0  0  0  0  0  0  0  0  0  0  0
  122.7019  122.3243   85.6874 C   0  0  0  0  0  0  0  0  0  0  0  0
  121.7986  122.4978   84.6182 N   0  0  0  0  0  0  0  0  0  0  0  0
  121.3661  123.8461   84.2285 C   0  0  0  0  0  0  0  0  0  0  0  0
  120.1660  123.7286   83.2792 C   0  0  0  0  0  0  0  0  0  0  0  0
  118.9532  124.0067   83.9786 O   0  0  0  0  0  0  0  0  0  0  0  0
  124.0959  122.2543   85.4207 C   0  0  0  0  0  0  0  0  0  0  0  0
  124.7016  122.5327   83.6159 Br  0  0  0  0  0  0  0  0  0  0  0  0
  126.7378  122.0421   85.1219 H   0  0  0  0  0  0  0  0  0  0  0  0
  127.0938  121.5091   86.7868 H   0  0  0  0  0  0  0  0  0  0  0  0
  122.8691  121.6228   89.0513 H   0  0  0  0  0  0  0  0  0  0  0  0
  121.4412  121.6767   84.1093 H   0  0  0  0  0  0  0  0  0  0  0  0
  121.0740  124.4135   85.1244 H   0  0  0  0  0  0  0  0  0  0  0  0
  122.1907  124.3704   83.7234 H   0  0  0  0  0  0  0  0  0  0  0  0
  120.2830  124.4478   82.4552 H   0  0  0  0  0  0  0  0  0  0  0  0
  120.1231  122.7040   82.8812 H   0  0  0  0  0  0  0  0  0  0  0  0
  119.1186  123.9688   84.9539 H   0  0  0  0  0  0  0  0  0  0  0  0
  1  2  1  0
  2  3  2  0
  3  4  1  0
  4  5  2  0
  4  6  1  0
  3  7  1  0
  7  8  2  0
  8  9  1  0
  8 10  1  0
 10 11  1  0
 11 12  1  0
 12 13  1  0
 13 14  1  0
 10 15  2  0
 15 16  1  0
 15  2  1  0
  1 17  1  0
  1 18  1  0
  7 19  1  0
 11 20  1  0
 12 21  1  0
 12 22  1  0
 13 23  1  0
 13 24  1  0
 14 25  1  0
M  CHG  2   4   1   6  -1
M  END
>  <loss>  (22) 
0.4555036723613739

>  <score>  (22) 
3.8226871490478516

$$$$
NQXJBWDIWFRTOQ-UHFFFAOYSA-N
     RDKit          3D

 25 25  0  0  0  0  0  0  0  0999 V2000
  126.4755  122.0794   86.0890 N   0  0  0  0  0  0  0  0  0  0  0  0
  125.1000  121.9191   86.3692 C   0  0  0  0  0  0  0  0  0  0  0  0
  124.6111  121.8025   87.6829 C   0  0  0  0  0  0  0  0  0  0  0  0
  125.5244  121.6513   88.8143 N   0  0  0  0  0  4  0  0  0  0  0  0
  126.5511  122.3456   88.8151 O   0  0  0  0  0  0  0  0  0  0  0  0
  125.2036  120.8603   89.7150 O   0  0  0  0  0  1  0  0  0  0  0  0
  123.2410  121.8083   87.9595 C   0  0  0  0  0  0  0  0  0  0  0  0
  122.3322  121.9574   86.9175 C   0  0  0  0  0  0  0  0  0  0  0  0
  121.0313  121.9509   87.2484 F   0  0  0  0  0  0  0  0  0  0  0  0
  122.7363  122.0939   85.5795 C   0  0  0  0  0  0  0  0  0  0  0  0
  121.8542  122.3370   84.5157 N   0  0  0  0  0  0  0  0  0  0  0  0
  120.6481  123.1578   84.6300 C   0  0  0  0  0  0  0  0  0  0  0  0
  120.5606  124.2435   83.5460 C   0  0  0  0  0  0  0  0  0  0  0  0
  119.4579  125.1282   83.7268 O   0  0  0  0  0  0  0  0  0  0  0  0
  124.1381  122.1132   85.3440 C   0  0  0  0  0  0  0  0  0  0  0  0
  124.7643  122.3567   83.5400 Br  0  0  0  0  0  0  0  0  0  0  0  0
  126.7962  122.1615   85.1136 H   0  0  0  0  0  0  0  0  0  0  0  0
  127.1575  122.1143   86.8600 H   0  0  0  0  0  0  0  0  0  0  0  0
  122.8842  121.6957   88.9939 H   0  0  0  0  0  0  0  0  0  0  0  0
  122.0680  121.9132   83.6016 H   0  0  0  0  0  0  0  0  0  0  0  0
  119.7683  122.5033   84.5435 H   0  0  0  0  0  0  0  0  0  0  0  0
  120.6850  123.6659   85.6050 H   0  0  0  0  0  0  0  0  0  0  0  0
  121.4891  124.8331   83.5657 H   0  0  0  0  0  0  0  0  0  0  0  0
  120.4164  123.7331   82.5823 H   0  0  0  0  0  0  0  0  0  0  0  0
  119.2949  125.2589   84.6945 H   0  0  0  0  0  0  0  0  0  0  0  0
  1  2  1  0
  2  3  2  0
  3  4  1  0
  4  5  2  0
  4  6  1  0
  3  7  1  0
  7  8  2  0
  8  9  1  0
  8 10  1  0
 10 11  1  0
 11 12  1  0
 12 13  1  0
 13 14  1  0
 10 15  2  0
 15 16  1  0
 15  2  1  0
  1 17  1  0
  1 18  1  0
  7 19  1  0
 11 20  1  0
 12 21  1  0
 12 22  1  0
 13 23  1  0
 13 24  1  0
 14 25  1  0
M  CHG  2   4   1   6  -1
M  END
>  <loss>  (23) 
0.46532630920410156

>  <score>  (23) 
3.781548261642456

$$$$
NQXJBWDIWFRTOQ-UHFFFAOYSA-N
     RDKit          3D

 25 25  0  0  0  0  0  0  0  0999 V2000
  126.4420  121.8749   86.0921 N   0  0  0  0  0  0  0  0  0  0  0  0
  125.0794  122.0255   86.4340 C   0  0  0  0  0  0  0  0  0  0  0  0
  124.6046  121.7832   87.7417 C   0  0  0  0  0  0  0  0  0  0  0  0
  125.5363  121.5488   88.8436 N   0  0  0  0  0  4  0  0  0  0  0  0
  125.8106  120.3717   89.1168 O   0  0  0  0  0  0  0  0  0  0  0  0
  125.9684  122.5384   89.4547 O   0  0  0  0  0  1  0  0  0  0  0  0
  123.2383  121.7795   88.0476 C   0  0  0  0  0  0  0  0  0  0  0  0
  122.3237  121.9933   87.0287 C   0  0  0  0  0  0  0  0  0  0  0  0
  121.0157  122.0060   87.3288 F   0  0  0  0  0  0  0  0  0  0  0  0
  122.7229  122.1934   85.6979 C   0  0  0  0  0  0  0  0  0  0  0  0
  121.7327  122.4580   84.7093 N   0  0  0  0  0  0  0  0  0  0  0  0
  121.3082  123.8668   84.7212 C   0  0  0  0  0  0  0  0  0  0  0  0
  120.4782  124.1791   83.4718 C   0  0  0  0  0  0  0  0  0  0  0  0
  119.0997  123.9021   83.6982 O   0  0  0  0  0  0  0  0  0  0  0  0
  124.1075  122.1955   85.4143 C   0  0  0  0  0  0  0  0  0  0  0  0
  124.6998  122.4063   83.6016 Br  0  0  0  0  0  0  0  0  0  0  0  0
  126.7546  122.0599   85.1283 H   0  0  0  0  0  0  0  0  0  0  0  0
  127.1228  121.5802   86.8067 H   0  0  0  0  0  0  0  0  0  0  0  0
  122.8966  121.6097   89.0793 H   0  0  0  0  0  0  0  0  0  0  0  0
  121.3584  121.7483   84.0635 H   0  0  0  0  0  0  0  0  0  0  0  0
  120.7000  124.0556   85.6181 H   0  0  0  0  0  0  0  0  0  0  0  0
  122.2000  124.5106   84.7302 H   0  0  0  0  0  0  0  0  0  0  0  0
  120.5953  125.2429   83.2177 H   0  0  0  0  0  0  0  0  0  0  0  0
  120.8338  123.5466   82.6451 H   0  0  0  0  0  0  0  0  0  0  0  0
  118.9257  123.8672   84.6722 H   0  0  0  0  0  0  0  0  0  0  0  0
  1  2  1  0
  2  3  2  0
  3  4  1  0
  4  5  2  0
  4  6  1  0
  3  7  1  0
  7  8  2  0
  8  9  1  0
  8 10  1  0
 10 11  1  0
 11 12  1  0
 12 13  1  0
 13 14  1  0
 10 15  2  0
 15 16  1  0
 15  2  1  0
  1 17  1  0
  1 18  1  0
  7 19  1  0
 11 20  1  0
 12 21  1  0
 12 22  1  0
 13 23  1  0
 13 24  1  0
 14 25  1  0
M  CHG  2   4   1   6  -1
M  END
>  <loss>  (24) 
0.46558019518852234

>  <score>  (24) 
3.7641236782073975

$$$$
NQXJBWDIWFRTOQ-UHFFFAOYSA-N
     RDKit          3D

 25 25  0  0  0  0  0  0  0  0999 V2000
  126.4761  121.9558   86.1108 N   0  0  0  0  0  0  0  0  0  0  0  0
  125.1023  122.0546   86.4260 C   0  0  0  0  0  0  0  0  0  0  0  0
  124.6133  121.8254   87.7291 C   0  0  0  0  0  0  0  0  0  0  0  0
  125.5312  121.6457   88.8521 N   0  0  0  0  0  4  0  0  0  0  0  0
  125.8834  120.4878   89.1200 O   0  0  0  0  0  0  0  0  0  0  0  0
  125.8713  122.6548   89.4891 O   0  0  0  0  0  1  0  0  0  0  0  0
  123.2425  121.7918   88.0130 C   0  0  0  0  0  0  0  0  0  0  0  0
  122.3366  121.9485   86.9752 C   0  0  0  0  0  0  0  0  0  0  0  0
  121.0263  121.9303   87.2658 F   0  0  0  0  0  0  0  0  0  0  0  0
  122.7518  122.1233   85.6460 C   0  0  0  0  0  0  0  0  0  0  0  0
  121.8019  122.2378   84.5936 N   0  0  0  0  0  0  0  0  0  0  0  0
  120.7993  123.3094   84.7898 C   0  0  0  0  0  0  0  0  0  0  0  0
  120.2721  123.9233   83.4833 C   0  0  0  0  0  0  0  0  0  0  0  0
  119.7535  125.2404   83.6776 O   0  0  0  0  0  0  0  0  0  0  0  0
  124.1421  122.1641   85.3879 C   0  0  0  0  0  0  0  0  0  0  0  0
  124.7569  122.4405   83.5913 Br  0  0  0  0  0  0  0  0  0  0  0  0
  126.7973  122.1301   85.1478 H   0  0  0  0  0  0  0  0  0  0  0  0
  127.1563  121.7096   86.8439 H   0  0  0  0  0  0  0  0  0  0  0  0
  122.8895  121.6433   89.0442 H   0  0  0  0  0  0  0  0  0  0  0  0
  121.8107  121.6267   83.7645 H   0  0  0  0  0  0  0  0  0  0  0  0
  119.9466  122.8875   85.3419 H   0  0  0  0  0  0  0  0  0  0  0  0
  121.3033  124.1182   85.3392 H   0  0  0  0  0  0  0  0  0  0  0  0
  121.0961  123.9705   82.7561 H   0  0  0  0  0  0  0  0  0  0  0  0
  119.4522  123.2875   83.1178 H   0  0  0  0  0  0  0  0  0  0  0  0
  119.6802  125.4265   84.6472 H   0  0  0  0  0  0  0  0  0  0  0  0
  1  2  1  0
  2  3  2  0
  3  4  1  0
  4  5  2  0
  4  6  1  0
  3  7  1  0
  7  8  2  0
  8  9  1  0
  8 10  1  0
 10 11  1  0
 11 12  1  0
 12 13  1  0
 13 14  1  0
 10 15  2  0
 15 16  1  0
 15  2  1  0
  1 17  1  0
  1 18  1  0
  7 19  1  0
 11 20  1  0
 12 21  1  0
 12 22  1  0
 13 23  1  0
 13 24  1  0
 14 25  1  0
M  CHG  2   4   1   6  -1
M  END
>  <loss>  (25) 
0.47731006145477295

>  <score>  (25) 
3.7155098915100098

$$$$
