PAJDRXDZAGNFDG-UHFFFAOYSA-N
     RDKit          3D

 19 19  0  0  0  0  0  0  0  0999 V2000
  124.6786  121.9614   83.3297 O   0  0  0  0  0  0  0  0  0  0  0  0
  123.7595  122.7791   83.3744 C   0  0  0  0  0  0  0  0  0  0  0  0
  123.1571  123.2018   84.5671 N   0  0  0  0  0  0  0  0  0  0  0  0
  123.2586  122.6152   85.8473 C   0  0  0  0  0  0  0  0  0  0  0  0
  122.0620  122.4169   86.5488 C   0  0  0  0  0  0  0  0  0  0  0  0
  122.0749  121.8427   87.8221 C   0  0  0  0  0  0  0  0  0  0  0  0
  120.5916  121.6092   88.6633 Cl  0  0  0  0  0  0  0  0  0  0  0  0
  123.2710  121.4589   88.4153 C   0  0  0  0  0  0  0  0  0  0  0  0
  124.4595  121.6557   87.7202 C   0  0  0  0  0  0  0  0  0  0  0  0
  125.9494  121.1850   88.4445 Cl  0  0  0  0  0  0  0  0  0  0  0  0
  124.4606  122.2295   86.4447 C   0  0  0  0  0  0  0  0  0  0  0  0
  123.1796  123.4601   82.1041 C   0  0  0  0  0  0  0  0  0  0  0  0
  124.5008  123.6119   80.9103 Cl  0  0  0  0  0  0  0  0  0  0  0  0
  122.5966  125.0943   82.5443 Cl  0  0  0  0  0  0  0  0  0  0  0  0
  121.8419  122.5183   81.4137 Cl  0  0  0  0  0  0  0  0  0  0  0  0
  122.5678  124.0440   84.5017 H   0  0  0  0  0  0  0  0  0  0  0  0
  121.1061  122.7154   86.0938 H   0  0  0  0  0  0  0  0  0  0  0  0
  123.2780  121.0068   89.4180 H   0  0  0  0  0  0  0  0  0  0  0  0
  125.4108  122.3775   85.9107 H   0  0  0  0  0  0  0  0  0  0  0  0
  1  2  2  0
  2  3  1  0
  3  4  1  0
  4  5  2  0
  5  6  1  0
  6  7  1  0
  6  8  2  0
  8  9  1  0
  9 10  1  0
  9 11  2  0
  2 12  1  0
 12 13  1  0
 12 14  1  0
 12 15  1  0
 11  4  1  0
  3 16  1  0
  5 17  1  0
  8 18  1  0
 11 19  1  0
M  END
>  <loss>  (1) 
0.5837035179138184

>  <score>  (1) 
2.225493907928467

$$$$
PAJDRXDZAGNFDG-UHFFFAOYSA-N
     RDKit          3D

 19 19  0  0  0  0  0  0  0  0999 V2000
  124.6542  121.9670   83.3250 O   0  0  0  0  0  0  0  0  0  0  0  0
  123.7346  122.7840   83.3716 C   0  0  0  0  0  0  0  0  0  0  0  0
  123.1215  123.1919   84.5641 N   0  0  0  0  0  0  0  0  0  0  0  0
  123.2378  122.6086   85.8446 C   0  0  0  0  0  0  0  0  0  0  0  0
  122.0489  122.4080   86.5585 C   0  0  0  0  0  0  0  0  0  0  0  0
  122.0764  121.8369   87.8329 C   0  0  0  0  0  0  0  0  0  0  0  0
  120.6024  121.6006   88.6893 Cl  0  0  0  0  0  0  0  0  0  0  0  0
  123.2796  121.4585   88.4150 C   0  0  0  0  0  0  0  0  0  0  0  0
  124.4605  121.6576   87.7076 C   0  0  0  0  0  0  0  0  0  0  0  0
  125.9591  121.1936   88.4181 Cl  0  0  0  0  0  0  0  0  0  0  0  0
  124.4470  122.2284   86.4309 C   0  0  0  0  0  0  0  0  0  0  0  0
  123.1658  123.4805   82.1048 C   0  0  0  0  0  0  0  0  0  0  0  0
  124.4873  123.6099   80.9087 Cl  0  0  0  0  0  0  0  0  0  0  0  0
  122.6165  125.1247   82.5514 Cl  0  0  0  0  0  0  0  0  0  0  0  0
  121.8081  122.5679   81.4142 Cl  0  0  0  0  0  0  0  0  0  0  0  0
  122.5111  124.0188   84.4982 H   0  0  0  0  0  0  0  0  0  0  0  0
  121.0875  122.7023   86.1123 H   0  0  0  0  0  0  0  0  0  0  0  0
  123.2981  121.0088   89.4187 H   0  0  0  0  0  0  0  0  0  0  0  0
  125.3913  122.3782   85.8870 H   0  0  0  0  0  0  0  0  0  0  0  0
  1  2  2  0
  2  3  1  0
  3  4  1  0
  4  5  2  0
  5  6  1  0
  6  7  1  0
  6  8  2  0
  8  9  1  0
  9 10  1  0
  9 11  2  0
  2 12  1  0
 12 13  1  0
 12 14  1  0
 12 15  1  0
 11  4  1  0
  3 16  1  0
  5 17  1  0
  8 18  1  0
 11 19  1  0
M  END
>  <loss>  (2) 
0.5850009918212891

>  <score>  (2) 
2.2261459827423096

$$$$
PAJDRXDZAGNFDG-UHFFFAOYSA-N
     RDKit          3D

 19 19  0  0  0  0  0  0  0  0999 V2000
  124.6604  121.9535   83.3346 O   0  0  0  0  0  0  0  0  0  0  0  0
  123.7528  122.7839   83.3779 C   0  0  0  0  0  0  0  0  0  0  0  0
  123.1336  123.1926   84.5672 N   0  0  0  0  0  0  0  0  0  0  0  0
  123.2420  122.6090   85.8482 C   0  0  0  0  0  0  0  0  0  0  0  0
  122.0488  122.4095   86.5553 C   0  0  0  0  0  0  0  0  0  0  0  0
  122.0685  121.8378   87.8296 C   0  0  0  0  0  0  0  0  0  0  0  0
  120.5895  121.6031   88.6778 Cl  0  0  0  0  0  0  0  0  0  0  0  0
  123.2679  121.4574   88.4182 C   0  0  0  0  0  0  0  0  0  0  0  0
  124.4530  121.6550   87.7173 C   0  0  0  0  0  0  0  0  0  0  0  0
  125.9469  121.1880   88.4356 Cl  0  0  0  0  0  0  0  0  0  0  0  0
  124.4473  122.2263   86.4408 C   0  0  0  0  0  0  0  0  0  0  0  0
  123.1902  123.4808   82.1087 C   0  0  0  0  0  0  0  0  0  0  0  0
  122.8274  125.1844   82.5166 Cl  0  0  0  0  0  0  0  0  0  0  0  0
  124.4518  123.4379   80.8419 Cl  0  0  0  0  0  0  0  0  0  0  0  0
  121.7194  122.6785   81.5208 Cl  0  0  0  0  0  0  0  0  0  0  0  0
  122.5246  124.0204   84.4980 H   0  0  0  0  0  0  0  0  0  0  0  0
  121.0903  122.7052   86.1039 H   0  0  0  0  0  0  0  0  0  0  0  0
  123.2803  121.0074   89.4218 H   0  0  0  0  0  0  0  0  0  0  0  0
  125.3948  122.3746   85.9020 H   0  0  0  0  0  0  0  0  0  0  0  0
  1  2  2  0
  2  3  1  0
  3  4  1  0
  4  5  2  0
  5  6  1  0
  6  7  1  0
  6  8  2  0
  8  9  1  0
  9 10  1  0
  9 11  2  0
  2 12  1  0
 12 13  1  0
 12 14  1  0
 12 15  1  0
 11  4  1  0
  3 16  1  0
  5 17  1  0
  8 18  1  0
 11 19  1  0
M  END
>  <loss>  (3) 
0.5866905450820923

>  <score>  (3) 
2.2297050952911377

$$$$
PAJDRXDZAGNFDG-UHFFFAOYSA-N
     RDKit          3D

 19 19  0  0  0  0  0  0  0  0999 V2000
  124.6588  121.9531   83.3198 O   0  0  0  0  0  0  0  0  0  0  0  0
  123.7495  122.7812   83.3705 C   0  0  0  0  0  0  0  0  0  0  0  0
  123.1554  123.2062   84.5666 N   0  0  0  0  0  0  0  0  0  0  0  0
  123.2614  122.6188   85.8461 C   0  0  0  0  0  0  0  0  0  0  0  0
  122.0670  122.4169   86.5503 C   0  0  0  0  0  0  0  0  0  0  0  0
  122.0843  121.8415   87.8230 C   0  0  0  0  0  0  0  0  0  0  0  0
  120.6037  121.6037   88.6675 Cl  0  0  0  0  0  0  0  0  0  0  0  0
  123.2828  121.4600   88.4129 C   0  0  0  0  0  0  0  0  0  0  0  0
  124.4691  121.6603   87.7151 C   0  0  0  0  0  0  0  0  0  0  0  0
  125.9619  121.1923   88.4352 Cl  0  0  0  0  0  0  0  0  0  0  0  0
  124.4658  122.2353   86.4401 C   0  0  0  0  0  0  0  0  0  0  0  0
  123.1675  123.4679   82.1043 C   0  0  0  0  0  0  0  0  0  0  0  0
  124.4664  123.5615   80.8797 Cl  0  0  0  0  0  0  0  0  0  0  0  0
  121.7837  122.5668   81.4516 Cl  0  0  0  0  0  0  0  0  0  0  0  0
  122.6531  125.1254   82.5408 Cl  0  0  0  0  0  0  0  0  0  0  0  0
  122.5693  124.0510   84.5046 H   0  0  0  0  0  0  0  0  0  0  0  0
  121.1092  122.7134   86.0978 H   0  0  0  0  0  0  0  0  0  0  0  0
  123.2933  121.0070   89.4152 H   0  0  0  0  0  0  0  0  0  0  0  0
  125.4143  122.3859   85.9038 H   0  0  0  0  0  0  0  0  0  0  0  0
  1  2  2  0
  2  3  1  0
  3  4  1  0
  4  5  2  0
  5  6  1  0
  6  7  1  0
  6  8  2  0
  8  9  1  0
  9 10  1  0
  9 11  2  0
  2 12  1  0
 12 13  1  0
 12 14  1  0
 12 15  1  0
 11  4  1  0
  3 16  1  0
  5 17  1  0
  8 18  1  0
 11 19  1  0
M  END
>  <loss>  (4) 
0.5843018293380737

>  <score>  (4) 
2.1976962089538574

$$$$
PAJDRXDZAGNFDG-UHFFFAOYSA-N
     RDKit          3D

 19 19  0  0  0  0  0  0  0  0999 V2000
  124.5912  121.9171   83.3156 O   0  0  0  0  0  0  0  0  0  0  0  0
  123.7157  122.7802   83.3772 C   0  0  0  0  0  0  0  0  0  0  0  0
  123.1280  123.2022   84.5776 N   0  0  0  0  0  0  0  0  0  0  0  0
  123.2444  122.6141   85.8559 C   0  0  0  0  0  0  0  0  0  0  0  0
  122.0549  122.4032   86.5657 C   0  0  0  0  0  0  0  0  0  0  0  0
  122.0825  121.8265   87.8377 C   0  0  0  0  0  0  0  0  0  0  0  0
  120.6078  121.5776   88.6892 Cl  0  0  0  0  0  0  0  0  0  0  0  0
  123.2865  121.4526   88.4212 C   0  0  0  0  0  0  0  0  0  0  0  0
  124.4679  121.6619   87.7178 C   0  0  0  0  0  0  0  0  0  0  0  0
  125.9674  121.2033   88.4299 Cl  0  0  0  0  0  0  0  0  0  0  0  0
  124.4543  122.2382   86.4435 C   0  0  0  0  0  0  0  0  0  0  0  0
  123.1738  123.5180   82.1220 C   0  0  0  0  0  0  0  0  0  0  0  0
  122.2123  124.9192   82.6766 Cl  0  0  0  0  0  0  0  0  0  0  0  0
  124.4932  124.0677   81.0685 Cl  0  0  0  0  0  0  0  0  0  0  0  0
  122.1101  122.3981   81.2181 Cl  0  0  0  0  0  0  0  0  0  0  0  0
  122.5387  124.0450   84.5202 H   0  0  0  0  0  0  0  0  0  0  0  0
  121.0929  122.6936   86.1183 H   0  0  0  0  0  0  0  0  0  0  0  0
  123.3051  120.9986   89.4229 H   0  0  0  0  0  0  0  0  0  0  0  0
  125.3991  122.3959   85.9027 H   0  0  0  0  0  0  0  0  0  0  0  0
  1  2  2  0
  2  3  1  0
  3  4  1  0
  4  5  2  0
  5  6  1  0
  6  7  1  0
  6  8  2  0
  8  9  1  0
  9 10  1  0
  9 11  2  0
  2 12  1  0
 12 13  1  0
 12 14  1  0
 12 15  1  0
 11  4  1  0
  3 16  1  0
  5 17  1  0
  8 18  1  0
 11 19  1  0
M  END
>  <loss>  (5) 
0.5882788300514221

>  <score>  (5) 
2.1662404537200928

$$$$
PAJDRXDZAGNFDG-UHFFFAOYSA-N
     RDKit          3D

 19 19  0  0  0  0  0  0  0  0999 V2000
  124.5219  121.9030   83.3011 O   0  0  0  0  0  0  0  0  0  0  0  0
  123.6729  122.7907   83.3804 C   0  0  0  0  0  0  0  0  0  0  0  0
  123.1182  123.2254   84.5920 N   0  0  0  0  0  0  0  0  0  0  0  0
  123.2398  122.6299   85.8664 C   0  0  0  0  0  0  0  0  0  0  0  0
  122.0533  122.4168   86.5807 C   0  0  0  0  0  0  0  0  0  0  0  0
  122.0859  121.8328   87.8491 C   0  0  0  0  0  0  0  0  0  0  0  0
  120.6149  121.5815   88.7063 Cl  0  0  0  0  0  0  0  0  0  0  0  0
  123.2920  121.4533   88.4246 C   0  0  0  0  0  0  0  0  0  0  0  0
  124.4704  121.6643   87.7167 C   0  0  0  0  0  0  0  0  0  0  0  0
  125.9725  121.1987   88.4188 Cl  0  0  0  0  0  0  0  0  0  0  0  0
  124.4517  122.2481   86.4458 C   0  0  0  0  0  0  0  0  0  0  0  0
  123.1195  123.5378   82.1359 C   0  0  0  0  0  0  0  0  0  0  0  0
  121.3370  123.6085   82.2689 Cl  0  0  0  0  0  0  0  0  0  0  0  0
  123.7740  125.2022   82.1465 Cl  0  0  0  0  0  0  0  0  0  0  0  0
  123.5765  122.7210   80.6270 Cl  0  0  0  0  0  0  0  0  0  0  0  0
  122.5524  124.0849   84.5472 H   0  0  0  0  0  0  0  0  0  0  0  0
  121.0896  122.7115   86.1396 H   0  0  0  0  0  0  0  0  0  0  0  0
  123.3146  120.9936   89.4237 H   0  0  0  0  0  0  0  0  0  0  0  0
  125.3942  122.4070   85.9013 H   0  0  0  0  0  0  0  0  0  0  0  0
  1  2  2  0
  2  3  1  0
  3  4  1  0
  4  5  2  0
  5  6  1  0
  6  7  1  0
  6  8  2  0
  8  9  1  0
  9 10  1  0
  9 11  2  0
  2 12  1  0
 12 13  1  0
 12 14  1  0
 12 15  1  0
 11  4  1  0
  3 16  1  0
  5 17  1  0
  8 18  1  0
 11 19  1  0
M  END
>  <loss>  (6) 
0.5905981659889221

>  <score>  (6) 
2.1711525917053223

$$$$
PAJDRXDZAGNFDG-UHFFFAOYSA-N
     RDKit          3D

 19 19  0  0  0  0  0  0  0  0999 V2000
  124.5858  121.9156   83.3160 O   0  0  0  0  0  0  0  0  0  0  0  0
  123.7142  122.7825   83.3778 C   0  0  0  0  0  0  0  0  0  0  0  0
  123.1215  123.2001   84.5773 N   0  0  0  0  0  0  0  0  0  0  0  0
  123.2399  122.6125   85.8557 C   0  0  0  0  0  0  0  0  0  0  0  0
  122.0513  122.3995   86.5664 C   0  0  0  0  0  0  0  0  0  0  0  0
  122.0809  121.8232   87.8384 C   0  0  0  0  0  0  0  0  0  0  0  0
  120.6072  121.5717   88.6912 Cl  0  0  0  0  0  0  0  0  0  0  0  0
  123.2860  121.4517   88.4212 C   0  0  0  0  0  0  0  0  0  0  0  0
  124.4666  121.6630   87.7169 C   0  0  0  0  0  0  0  0  0  0  0  0
  125.9674  121.2074   88.4281 Cl  0  0  0  0  0  0  0  0  0  0  0  0
  124.4509  122.2390   86.4425 C   0  0  0  0  0  0  0  0  0  0  0  0
  123.1832  123.5305   82.1240 C   0  0  0  0  0  0  0  0  0  0  0  0
  122.2248  124.9327   82.6815 Cl  0  0  0  0  0  0  0  0  0  0  0  0
  124.5113  124.0806   81.0817 Cl  0  0  0  0  0  0  0  0  0  0  0  0
  122.1197  122.4212   81.2069 Cl  0  0  0  0  0  0  0  0  0  0  0  0
  122.5263  124.0387   84.5191 H   0  0  0  0  0  0  0  0  0  0  0  0
  121.0884  122.6880   86.1196 H   0  0  0  0  0  0  0  0  0  0  0  0
  123.3062  120.9980   89.4230 H   0  0  0  0  0  0  0  0  0  0  0  0
  125.3951  122.3984   85.9010 H   0  0  0  0  0  0  0  0  0  0  0  0
  1  2  2  0
  2  3  1  0
  3  4  1  0
  4  5  2  0
  5  6  1  0
  6  7  1  0
  6  8  2  0
  8  9  1  0
  9 10  1  0
  9 11  2  0
  2 12  1  0
 12 13  1  0
 12 14  1  0
 12 15  1  0
 11  4  1  0
  3 16  1  0
  5 17  1  0
  8 18  1  0
 11 19  1  0
M  END
>  <loss>  (7) 
0.5897926092147827

>  <score>  (7) 
2.1656737327575684

$$$$
PAJDRXDZAGNFDG-UHFFFAOYSA-N
     RDKit          3D

 19 19  0  0  0  0  0  0  0  0999 V2000
  124.6913  121.9540   83.3244 O   0  0  0  0  0  0  0  0  0  0  0  0
  123.8034  122.8059   83.3582 C   0  0  0  0  0  0  0  0  0  0  0  0
  123.1550  123.2015   84.5360 N   0  0  0  0  0  0  0  0  0  0  0  0
  123.2517  122.6194   85.8187 C   0  0  0  0  0  0  0  0  0  0  0  0
  122.0525  122.4250   86.5170 C   0  0  0  0  0  0  0  0  0  0  0  0
  122.0606  121.8555   87.7924 C   0  0  0  0  0  0  0  0  0  0  0  0
  120.5743  121.6267   88.6295 Cl  0  0  0  0  0  0  0  0  0  0  0  0
  123.2543  121.4725   88.3909 C   0  0  0  0  0  0  0  0  0  0  0  0
  124.4453  121.6656   87.6990 C   0  0  0  0  0  0  0  0  0  0  0  0
  125.9323  121.1958   88.4299 Cl  0  0  0  0  0  0  0  0  0  0  0  0
  124.4513  122.2347   86.4215 C   0  0  0  0  0  0  0  0  0  0  0  0
  123.3188  123.5638   82.0916 C   0  0  0  0  0  0  0  0  0  0  0  0
  123.4676  125.3161   82.4091 Cl  0  0  0  0  0  0  0  0  0  0  0  0
  121.5974  123.1638   81.8067 Cl  0  0  0  0  0  0  0  0  0  0  0  0
  124.2756  123.1216   80.6625 Cl  0  0  0  0  0  0  0  0  0  0  0  0
  122.5311  124.0172   84.4561 H   0  0  0  0  0  0  0  0  0  0  0  0
  121.0984  122.7229   86.0577 H   0  0  0  0  0  0  0  0  0  0  0  0
  123.2575  121.0241   89.3953 H   0  0  0  0  0  0  0  0  0  0  0  0
  125.4034  122.3796   85.8900 H   0  0  0  0  0  0  0  0  0  0  0  0
  1  2  2  0
  2  3  1  0
  3  4  1  0
  4  5  2  0
  5  6  1  0
  6  7  1  0
  6  8  2  0
  8  9  1  0
  9 10  1  0
  9 11  2  0
  2 12  1  0
 12 13  1  0
 12 14  1  0
 12 15  1  0
 11  4  1  0
  3 16  1  0
  5 17  1  0
  8 18  1  0
 11 19  1  0
M  END
>  <loss>  (8) 
0.5908326506614685

>  <score>  (8) 
2.158358573913574

$$$$
PAJDRXDZAGNFDG-UHFFFAOYSA-N
     RDKit          3D

 19 19  0  0  0  0  0  0  0  0999 V2000
  124.4791  121.7858   83.3214 O   0  0  0  0  0  0  0  0  0  0  0  0
  123.7139  122.7476   83.3867 C   0  0  0  0  0  0  0  0  0  0  0  0
  123.2582  123.2938   84.5945 N   0  0  0  0  0  0  0  0  0  0  0  0
  123.2057  122.6753   85.8627 C   0  0  0  0  0  0  0  0  0  0  0  0
  122.0274  122.4233   86.5687 C   0  0  0  0  0  0  0  0  0  0  0  0
  122.0773  121.8038   87.8216 C   0  0  0  0  0  0  0  0  0  0  0  0
  120.6162  121.4995   88.6809 Cl  0  0  0  0  0  0  0  0  0  0  0  0
  123.2916  121.4285   88.3865 C   0  0  0  0  0  0  0  0  0  0  0  0
  124.4642  121.6785   87.6848 C   0  0  0  0  0  0  0  0  0  0  0  0
  125.9787  121.2228   88.3637 Cl  0  0  0  0  0  0  0  0  0  0  0  0
  124.4284  122.2965   86.4327 C   0  0  0  0  0  0  0  0  0  0  0  0
  123.1702  123.4760   82.1268 C   0  0  0  0  0  0  0  0  0  0  0  0
  122.1692  124.8761   82.5631 Cl  0  0  0  0  0  0  0  0  0  0  0  0
  124.5626  124.0139   81.1406 Cl  0  0  0  0  0  0  0  0  0  0  0  0
  122.2009  122.3069   81.1827 Cl  0  0  0  0  0  0  0  0  0  0  0  0
  122.9202  124.2658   84.5517 H   0  0  0  0  0  0  0  0  0  0  0  0
  121.0574  122.7128   86.1382 H   0  0  0  0  0  0  0  0  0  0  0  0
  123.3230  120.9417   89.3724 H   0  0  0  0  0  0  0  0  0  0  0  0
  125.3663  122.4871   85.8905 H   0  0  0  0  0  0  0  0  0  0  0  0
  1  2  2  0
  2  3  1  0
  3  4  1  0
  4  5  2  0
  5  6  1  0
  6  7  1  0
  6  8  2  0
  8  9  1  0
  9 10  1  0
  9 11  2  0
  2 12  1  0
 12 13  1  0
 12 14  1  0
 12 15  1  0
 11  4  1  0
  3 16  1  0
  5 17  1  0
  8 18  1  0
 11 19  1  0
M  END
>  <loss>  (9) 
0.5862486958503723

>  <score>  (9) 
2.098292350769043

$$$$
PAJDRXDZAGNFDG-UHFFFAOYSA-N
     RDKit          3D

 19 19  0  0  0  0  0  0  0  0999 V2000
  124.4736  121.7781   83.3382 O   0  0  0  0  0  0  0  0  0  0  0  0
  123.7598  122.7794   83.3959 C   0  0  0  0  0  0  0  0  0  0  0  0
  123.2464  123.2955   84.5933 N   0  0  0  0  0  0  0  0  0  0  0  0
  123.2001  122.6721   85.8593 C   0  0  0  0  0  0  0  0  0  0  0  0
  122.0241  122.4013   86.5622 C   0  0  0  0  0  0  0  0  0  0  0  0
  122.0804  121.7792   87.8136 C   0  0  0  0  0  0  0  0  0  0  0  0
  120.6220  121.4515   88.6689 Cl  0  0  0  0  0  0  0  0  0  0  0  0
  123.2988  121.4203   88.3801 C   0  0  0  0  0  0  0  0  0  0  0  0
  124.4692  121.6899   87.6820 C   0  0  0  0  0  0  0  0  0  0  0  0
  125.9887  121.2552   88.3633 Cl  0  0  0  0  0  0  0  0  0  0  0  0
  124.4270  122.3107   86.4314 C   0  0  0  0  0  0  0  0  0  0  0  0
  123.3180  123.5684   82.1325 C   0  0  0  0  0  0  0  0  0  0  0  0
  122.7920  125.2060   82.6294 Cl  0  0  0  0  0  0  0  0  0  0  0  0
  121.9335  122.7050   81.4042 Cl  0  0  0  0  0  0  0  0  0  0  0  0
  124.6401  123.7029   80.9547 Cl  0  0  0  0  0  0  0  0  0  0  0  0
  122.8545  124.2468   84.5438 H   0  0  0  0  0  0  0  0  0  0  0  0
  121.0509  122.6780   86.1304 H   0  0  0  0  0  0  0  0  0  0  0  0
  123.3351  120.9311   89.3647 H   0  0  0  0  0  0  0  0  0  0  0  0
  125.3633  122.5172   85.8922 H   0  0  0  0  0  0  0  0  0  0  0  0
  1  2  2  0
  2  3  1  0
  3  4  1  0
  4  5  2  0
  5  6  1  0
  6  7  1  0
  6  8  2  0
  8  9  1  0
  9 10  1  0
  9 11  2  0
  2 12  1  0
 12 13  1  0
 12 14  1  0
 12 15  1  0
 11  4  1  0
  3 16  1  0
  5 17  1  0
  8 18  1  0
 11 19  1  0
M  END
>  <loss>  (10) 
0.5919519066810608

>  <score>  (10) 
2.0890767574310303

$$$$
PAJDRXDZAGNFDG-UHFFFAOYSA-N
     RDKit          3D

 19 19  0  0  0  0  0  0  0  0999 V2000
  124.5352  121.7950   83.3384 O   0  0  0  0  0  0  0  0  0  0  0  0
  123.7819  122.7672   83.3861 C   0  0  0  0  0  0  0  0  0  0  0  0
  123.2715  123.2933   84.5809 N   0  0  0  0  0  0  0  0  0  0  0  0
  123.2132  122.6735   85.8481 C   0  0  0  0  0  0  0  0  0  0  0  0
  122.0307  122.4075   86.5420 C   0  0  0  0  0  0  0  0  0  0  0  0
  122.0750  121.7880   87.7951 C   0  0  0  0  0  0  0  0  0  0  0  0
  120.6088  121.4664   88.6393 Cl  0  0  0  0  0  0  0  0  0  0  0  0
  123.2878  121.4263   88.3721 C   0  0  0  0  0  0  0  0  0  0  0  0
  124.4645  121.6902   87.6825 C   0  0  0  0  0  0  0  0  0  0  0  0
  125.9771  121.2516   88.3766 Cl  0  0  0  0  0  0  0  0  0  0  0  0
  124.4343  122.3085   86.4304 C   0  0  0  0  0  0  0  0  0  0  0  0
  123.3161  123.5324   82.1168 C   0  0  0  0  0  0  0  0  0  0  0  0
  124.5387  123.4690   80.8308 Cl  0  0  0  0  0  0  0  0  0  0  0  0
  121.7934  122.7924   81.5384 Cl  0  0  0  0  0  0  0  0  0  0  0  0
  123.0039  125.2324   82.5748 Cl  0  0  0  0  0  0  0  0  0  0  0  0
  122.8924  124.2495   84.5278 H   0  0  0  0  0  0  0  0  0  0  0  0
  121.0619  122.6861   86.1018 H   0  0  0  0  0  0  0  0  0  0  0  0
  123.3147  120.9394   89.3581 H   0  0  0  0  0  0  0  0  0  0  0  0
  125.3754  122.5102   85.8978 H   0  0  0  0  0  0  0  0  0  0  0  0
  1  2  2  0
  2  3  1  0
  3  4  1  0
  4  5  2  0
  5  6  1  0
  6  7  1  0
  6  8  2  0
  8  9  1  0
  9 10  1  0
  9 11  2  0
  2 12  1  0
 12 13  1  0
 12 14  1  0
 12 15  1  0
 11  4  1  0
  3 16  1  0
  5 17  1  0
  8 18  1  0
 11 19  1  0
M  END
>  <loss>  (11) 
0.5912792086601257

>  <score>  (11) 
2.076127767562866

$$$$
PAJDRXDZAGNFDG-UHFFFAOYSA-N
     RDKit          3D

 19 19  0  0  0  0  0  0  0  0999 V2000
  124.5487  121.8466   83.3559 O   0  0  0  0  0  0  0  0  0  0  0  0
  123.7571  122.7880   83.4059 C   0  0  0  0  0  0  0  0  0  0  0  0
  123.2404  123.3017   84.6029 N   0  0  0  0  0  0  0  0  0  0  0  0
  123.1919  122.6762   85.8678 C   0  0  0  0  0  0  0  0  0  0  0  0
  122.0152  122.4130   86.5724 C   0  0  0  0  0  0  0  0  0  0  0  0
  122.0691  121.7881   87.8225 C   0  0  0  0  0  0  0  0  0  0  0  0
  120.6100  121.4698   88.6801 Cl  0  0  0  0  0  0  0  0  0  0  0  0
  123.2859  121.4189   88.3860 C   0  0  0  0  0  0  0  0  0  0  0  0
  124.4570  121.6809   87.6861 C   0  0  0  0  0  0  0  0  0  0  0  0
  125.9744  121.2334   88.3637 Cl  0  0  0  0  0  0  0  0  0  0  0  0
  124.4171  122.3044   86.4369 C   0  0  0  0  0  0  0  0  0  0  0  0
  123.2129  123.4946   82.1337 C   0  0  0  0  0  0  0  0  0  0  0  0
  124.5775  123.8037   81.0167 Cl  0  0  0  0  0  0  0  0  0  0  0  0
  122.5025  125.0553   82.6358 Cl  0  0  0  0  0  0  0  0  0  0  0  0
  121.9887  122.5038   81.3133 Cl  0  0  0  0  0  0  0  0  0  0  0  0
  122.8478  124.2527   84.5540 H   0  0  0  0  0  0  0  0  0  0  0  0
  121.0433  122.6980   86.1431 H   0  0  0  0  0  0  0  0  0  0  0  0
  123.3204  120.9275   89.3696 H   0  0  0  0  0  0  0  0  0  0  0  0
  125.3538  122.5048   85.8962 H   0  0  0  0  0  0  0  0  0  0  0  0
  1  2  2  0
  2  3  1  0
  3  4  1  0
  4  5  2  0
  5  6  1  0
  6  7  1  0
  6  8  2  0
  8  9  1  0
  9 10  1  0
  9 11  2  0
  2 12  1  0
 12 13  1  0
 12 14  1  0
 12 15  1  0
 11  4  1  0
  3 16  1  0
  5 17  1  0
  8 18  1  0
 11 19  1  0
M  END
>  <loss>  (12) 
0.5884177088737488

>  <score>  (12) 
2.0547220706939697

$$$$
PAJDRXDZAGNFDG-UHFFFAOYSA-N
     RDKit          3D

 19 19  0  0  0  0  0  0  0  0999 V2000
  124.6496  122.0109   83.3190 O   0  0  0  0  0  0  0  0  0  0  0  0
  123.6903  122.7798   83.3792 C   0  0  0  0  0  0  0  0  0  0  0  0
  123.1018  123.1905   84.5832 N   0  0  0  0  0  0  0  0  0  0  0  0
  123.2361  122.6040   85.8605 C   0  0  0  0  0  0  0  0  0  0  0  0
  122.0546  122.3696   86.5762 C   0  0  0  0  0  0  0  0  0  0  0  0
  122.0999  121.7926   87.8475 C   0  0  0  0  0  0  0  0  0  0  0  0
  120.6346  121.5147   88.7065 Cl  0  0  0  0  0  0  0  0  0  0  0  0
  123.3138  121.4414   88.4244 C   0  0  0  0  0  0  0  0  0  0  0  0
  124.4873  121.6736   87.7150 C   0  0  0  0  0  0  0  0  0  0  0  0
  125.9990  121.2431   88.4188 Cl  0  0  0  0  0  0  0  0  0  0  0  0
  124.4560  122.2506   86.4413 C   0  0  0  0  0  0  0  0  0  0  0  0
  123.0214  123.3894   82.1166 C   0  0  0  0  0  0  0  0  0  0  0  0
  121.2523  123.4258   82.3794 Cl  0  0  0  0  0  0  0  0  0  0  0  0
  123.6188  125.0636   81.9208 Cl  0  0  0  0  0  0  0  0  0  0  0  0
  123.3921  122.4439   80.6601 Cl  0  0  0  0  0  0  0  0  0  0  0  0
  122.4969  124.0225   84.5296 H   0  0  0  0  0  0  0  0  0  0  0  0
  121.0849  122.6418   86.1340 H   0  0  0  0  0  0  0  0  0  0  0  0
  123.3464  120.9871   89.4257 H   0  0  0  0  0  0  0  0  0  0  0  0
  125.3948  122.4265   85.8956 H   0  0  0  0  0  0  0  0  0  0  0  0
  1  2  2  0
  2  3  1  0
  3  4  1  0
  4  5  2  0
  5  6  1  0
  6  7  1  0
  6  8  2  0
  8  9  1  0
  9 10  1  0
  9 11  2  0
  2 12  1  0
 12 13  1  0
 12 14  1  0
 12 15  1  0
 11  4  1  0
  3 16  1  0
  5 17  1  0
  8 18  1  0
 11 19  1  0
M  END
>  <loss>  (13) 
0.5983832478523254

>  <score>  (13) 
2.0637826919555664

$$$$
PAJDRXDZAGNFDG-UHFFFAOYSA-N
     RDKit          3D

 19 19  0  0  0  0  0  0  0  0999 V2000
  124.5702  121.8711   83.3495 O   0  0  0  0  0  0  0  0  0  0  0  0
  123.7145  122.7546   83.3982 C   0  0  0  0  0  0  0  0  0  0  0  0
  123.2083  123.2769   84.5964 N   0  0  0  0  0  0  0  0  0  0  0  0
  123.1741  122.6615   85.8666 C   0  0  0  0  0  0  0  0  0  0  0  0
  122.0050  122.3971   86.5833 C   0  0  0  0  0  0  0  0  0  0  0  0
  122.0731  121.7820   87.8375 C   0  0  0  0  0  0  0  0  0  0  0  0
  120.6231  121.4622   88.7100 Cl  0  0  0  0  0  0  0  0  0  0  0  0
  123.2967  121.4232   88.3930 C   0  0  0  0  0  0  0  0  0  0  0  0
  124.4602  121.6855   87.6808 C   0  0  0  0  0  0  0  0  0  0  0  0
  125.9857  121.2504   88.3481 Cl  0  0  0  0  0  0  0  0  0  0  0  0
  124.4061  122.2994   86.4273 C   0  0  0  0  0  0  0  0  0  0  0  0
  123.1014  123.4015   82.1258 C   0  0  0  0  0  0  0  0  0  0  0  0
  122.9113  122.2161   80.8176 Cl  0  0  0  0  0  0  0  0  0  0  0  0
  121.5057  124.0879   82.5543 Cl  0  0  0  0  0  0  0  0  0  0  0  0
  124.1839  124.7225   81.5960 Cl  0  0  0  0  0  0  0  0  0  0  0  0
  122.8127  124.2265   84.5437 H   0  0  0  0  0  0  0  0  0  0  0  0
  121.0279  122.6735   86.1602 H   0  0  0  0  0  0  0  0  0  0  0  0
  123.3423  120.9397   89.3800 H   0  0  0  0  0  0  0  0  0  0  0  0
  125.3370  122.4999   85.8766 H   0  0  0  0  0  0  0  0  0  0  0  0
  1  2  2  0
  2  3  1  0
  3  4  1  0
  4  5  2  0
  5  6  1  0
  6  7  1  0
  6  8  2  0
  8  9  1  0
  9 10  1  0
  9 11  2  0
  2 12  1  0
 12 13  1  0
 12 14  1  0
 12 15  1  0
 11  4  1  0
  3 16  1  0
  5 17  1  0
  8 18  1  0
 11 19  1  0
M  END
>  <loss>  (14) 
0.5982629060745239

>  <score>  (14) 
2.0630154609680176

$$$$
PAJDRXDZAGNFDG-UHFFFAOYSA-N
     RDKit          3D

 19 19  0  0  0  0  0  0  0  0999 V2000
  124.3848  121.7511   83.2995 O   0  0  0  0  0  0  0  0  0  0  0  0
  123.6919  122.7656   83.3775 C   0  0  0  0  0  0  0  0  0  0  0  0
  123.2408  123.3030   84.5906 N   0  0  0  0  0  0  0  0  0  0  0  0
  123.1993  122.6780   85.8559 C   0  0  0  0  0  0  0  0  0  0  0  0
  122.0263  122.4106   86.5651 C   0  0  0  0  0  0  0  0  0  0  0  0
  122.0872  121.7867   87.8153 C   0  0  0  0  0  0  0  0  0  0  0  0
  120.6325  121.4632   88.6784 Cl  0  0  0  0  0  0  0  0  0  0  0  0
  123.3075  121.4225   88.3745 C   0  0  0  0  0  0  0  0  0  0  0  0
  124.4750  121.6886   87.6702 C   0  0  0  0  0  0  0  0  0  0  0  0
  125.9966  121.2474   88.3424 Cl  0  0  0  0  0  0  0  0  0  0  0  0
  124.4281  122.3112   86.4207 C   0  0  0  0  0  0  0  0  0  0  0  0
  123.2090  123.5497   82.1262 C   0  0  0  0  0  0  0  0  0  0  0  0
  123.9057  125.1982   82.1737 Cl  0  0  0  0  0  0  0  0  0  0  0  0
  121.4277  123.6647   82.2060 Cl  0  0  0  0  0  0  0  0  0  0  0  0
  123.7007  122.7419   80.6231 Cl  0  0  0  0  0  0  0  0  0  0  0  0
  122.8971  124.2733   84.5547 H   0  0  0  0  0  0  0  0  0  0  0  0
  121.0517  122.6916   86.1392 H   0  0  0  0  0  0  0  0  0  0  0  0
  123.3475  120.9318   89.3582 H   0  0  0  0  0  0  0  0  0  0  0  0
  125.3620  122.5150   85.8765 H   0  0  0  0  0  0  0  0  0  0  0  0
  1  2  2  0
  2  3  1  0
  3  4  1  0
  4  5  2  0
  5  6  1  0
  6  7  1  0
  6  8  2  0
  8  9  1  0
  9 10  1  0
  9 11  2  0
  2 12  1  0
 12 13  1  0
 12 14  1  0
 12 15  1  0
 11  4  1  0
  3 16  1  0
  5 17  1  0
  8 18  1  0
 11 19  1  0
M  END
>  <loss>  (15) 
0.5943204760551453

>  <score>  (15) 
2.0200371742248535

$$$$
PAJDRXDZAGNFDG-UHFFFAOYSA-N
     RDKit          3D

 19 19  0  0  0  0  0  0  0  0999 V2000
  126.1950  120.5897   85.7678 O   0  0  0  0  0  0  0  0  0  0  0  0
  126.4362  120.6896   86.9707 C   0  0  0  0  0  0  0  0  0  0  0  0
  125.4859  121.0896   87.9202 N   0  0  0  0  0  0  0  0  0  0  0  0
  124.1711  121.5511   87.6924 C   0  0  0  0  0  0  0  0  0  0  0  0
  123.7929  122.3532   86.6135 C   0  0  0  0  0  0  0  0  0  0  0  0
  122.4625  122.7607   86.4727 C   0  0  0  0  0  0  0  0  0  0  0  0
  122.0107  123.7498   85.1372 Cl  0  0  0  0  0  0  0  0  0  0  0  0
  121.4955  122.3789   87.3966 C   0  0  0  0  0  0  0  0  0  0  0  0
  121.8707  121.5810   88.4701 C   0  0  0  0  0  0  0  0  0  0  0  0
  120.6914  121.0959   89.6261 Cl  0  0  0  0  0  0  0  0  0  0  0  0
  123.1960  121.1670   88.6225 C   0  0  0  0  0  0  0  0  0  0  0  0
  127.8306  120.3716   87.5774 C   0  0  0  0  0  0  0  0  0  0  0  0
  128.1695  121.3802   88.9988 Cl  0  0  0  0  0  0  0  0  0  0  0  0
  127.8637  118.6442   88.0419 Cl  0  0  0  0  0  0  0  0  0  0  0  0
  129.0655  120.6629   86.3174 Cl  0  0  0  0  0  0  0  0  0  0  0  0
  125.7832  121.0410   88.9052 H   0  0  0  0  0  0  0  0  0  0  0  0
  124.5435  122.6652   85.8723 H   0  0  0  0  0  0  0  0  0  0  0  0
  120.4511  122.7034   87.2793 H   0  0  0  0  0  0  0  0  0  0  0  0
  123.4761  120.5353   89.4783 H   0  0  0  0  0  0  0  0  0  0  0  0
  1  2  2  0
  2  3  1  0
  3  4  1  0
  4  5  2  0
  5  6  1  0
  6  7  1  0
  6  8  2  0
  8  9  1  0
  9 10  1  0
  9 11  2  0
  2 12  1  0
 12 13  1  0
 12 14  1  0
 12 15  1  0
 11  4  1  0
  3 16  1  0
  5 17  1  0
  8 18  1  0
 11 19  1  0
M  END
>  <loss>  (16) 
0.7422404289245605

>  <score>  (16) 
2.5649831295013428

$$$$
PAJDRXDZAGNFDG-UHFFFAOYSA-N
     RDKit          3D

 19 19  0  0  0  0  0  0  0  0999 V2000
  126.2140  120.6503   85.7159 O   0  0  0  0  0  0  0  0  0  0  0  0
  126.4611  120.7426   86.9183 C   0  0  0  0  0  0  0  0  0  0  0  0
  125.5195  121.1507   87.8725 N   0  0  0  0  0  0  0  0  0  0  0  0
  124.1936  121.5845   87.6549 C   0  0  0  0  0  0  0  0  0  0  0  0
  123.7911  122.3814   86.5811 C   0  0  0  0  0  0  0  0  0  0  0  0
  122.4515  122.7615   86.4509 C   0  0  0  0  0  0  0  0  0  0  0  0
  121.9696  123.7445   85.1215 Cl  0  0  0  0  0  0  0  0  0  0  0  0
  121.4994  122.3574   87.3808 C   0  0  0  0  0  0  0  0  0  0  0  0
  121.8990  121.5652   88.4498 C   0  0  0  0  0  0  0  0  0  0  0  0
  120.7386  121.0534   89.6132 Cl  0  0  0  0  0  0  0  0  0  0  0  0
  123.2337  121.1786   88.5915 C   0  0  0  0  0  0  0  0  0  0  0  0
  127.8665  120.4465   87.5108 C   0  0  0  0  0  0  0  0  0  0  0  0
  127.6778  119.3895   88.9435 Cl  0  0  0  0  0  0  0  0  0  0  0  0
  128.5842  122.0011   88.0211 Cl  0  0  0  0  0  0  0  0  0  0  0  0
  128.9186  119.6506   86.3221 Cl  0  0  0  0  0  0  0  0  0  0  0  0
  125.8332  121.1318   88.8534 H   0  0  0  0  0  0  0  0  0  0  0  0
  124.5298  122.7111   85.8356 H   0  0  0  0  0  0  0  0  0  0  0  0
  120.4475  122.6601   87.2717 H   0  0  0  0  0  0  0  0  0  0  0  0
  123.5332  120.5514   89.4441 H   0  0  0  0  0  0  0  0  0  0  0  0
  1  2  2  0
  2  3  1  0
  3  4  1  0
  4  5  2  0
  5  6  1  0
  6  7  1  0
  6  8  2  0
  8  9  1  0
  9 10  1  0
  9 11  2  0
  2 12  1  0
 12 13  1  0
 12 14  1  0
 12 15  1  0
 11  4  1  0
  3 16  1  0
  5 17  1  0
  8 18  1  0
 11 19  1  0
M  END
>  <loss>  (17) 
0.7467824816703796

>  <score>  (17) 
2.580296277999878

$$$$
PAJDRXDZAGNFDG-UHFFFAOYSA-N
     RDKit          3D

 19 19  0  0  0  0  0  0  0  0999 V2000
  126.0823  120.5325   85.6809 O   0  0  0  0  0  0  0  0  0  0  0  0
  126.4355  120.7101   86.8466 C   0  0  0  0  0  0  0  0  0  0  0  0
  125.6109  121.2782   87.8274 N   0  0  0  0  0  0  0  0  0  0  0  0
  124.2376  121.5922   87.7326 C   0  0  0  0  0  0  0  0  0  0  0  0
  123.8449  122.3914   86.6507 C   0  0  0  0  0  0  0  0  0  0  0  0
  122.5047  122.7480   86.4840 C   0  0  0  0  0  0  0  0  0  0  0  0
  122.0475  123.7305   85.1470 Cl  0  0  0  0  0  0  0  0  0  0  0  0
  121.5388  122.3181   87.3851 C   0  0  0  0  0  0  0  0  0  0  0  0
  121.9273  121.5248   88.4594 C   0  0  0  0  0  0  0  0  0  0  0  0
  120.7398  120.9853   89.5840 Cl  0  0  0  0  0  0  0  0  0  0  0  0
  123.2658  121.1606   88.6379 C   0  0  0  0  0  0  0  0  0  0  0  0
  127.8457  120.3172   87.3665 C   0  0  0  0  0  0  0  0  0  0  0  0
  128.1869  121.2701   88.8415 Cl  0  0  0  0  0  0  0  0  0  0  0  0
  127.8227  118.5786   87.7849 Cl  0  0  0  0  0  0  0  0  0  0  0  0
  129.1003  120.6267   86.1489 Cl  0  0  0  0  0  0  0  0  0  0  0  0
  126.0622  121.4929   88.7280 H   0  0  0  0  0  0  0  0  0  0  0  0
  124.5970  122.7404   85.9279 H   0  0  0  0  0  0  0  0  0  0  0  0
  120.4841  122.6005   87.2512 H   0  0  0  0  0  0  0  0  0  0  0  0
  123.5539  120.5324   89.4938 H   0  0  0  0  0  0  0  0  0  0  0  0
  1  2  2  0
  2  3  1  0
  3  4  1  0
  4  5  2  0
  5  6  1  0
  6  7  1  0
  6  8  2  0
  8  9  1  0
  9 10  1  0
  9 11  2  0
  2 12  1  0
 12 13  1  0
 12 14  1  0
 12 15  1  0
 11  4  1  0
  3 16  1  0
  5 17  1  0
  8 18  1  0
 11 19  1  0
M  END
>  <loss>  (18) 
0.7489836812019348

>  <score>  (18) 
2.588737726211548

$$$$
PAJDRXDZAGNFDG-UHFFFAOYSA-N
     RDKit          3D

 19 19  0  0  0  0  0  0  0  0999 V2000
  126.1402  120.6247   85.7585 O   0  0  0  0  0  0  0  0  0  0  0  0
  126.3722  120.6973   86.9651 C   0  0  0  0  0  0  0  0  0  0  0  0
  125.4207  121.0963   87.9139 N   0  0  0  0  0  0  0  0  0  0  0  0
  124.1099  121.5681   87.6844 C   0  0  0  0  0  0  0  0  0  0  0  0
  123.7390  122.3712   86.6037 C   0  0  0  0  0  0  0  0  0  0  0  0
  122.4120  122.7895   86.4613 C   0  0  0  0  0  0  0  0  0  0  0  0
  121.9693  123.7798   85.1237 Cl  0  0  0  0  0  0  0  0  0  0  0  0
  121.4414  122.4174   87.3854 C   0  0  0  0  0  0  0  0  0  0  0  0
  121.8093  121.6183   88.4606 C   0  0  0  0  0  0  0  0  0  0  0  0
  120.6254  121.1452   89.6166 Cl  0  0  0  0  0  0  0  0  0  0  0  0
  123.1311  121.1938   88.6145 C   0  0  0  0  0  0  0  0  0  0  0  0
  127.7551  120.3426   87.5777 C   0  0  0  0  0  0  0  0  0  0  0  0
  128.9225  119.8720   86.3254 Cl  0  0  0  0  0  0  0  0  0  0  0  0
  128.3642  121.7730   88.4631 Cl  0  0  0  0  0  0  0  0  0  0  0  0
  127.5244  118.9951   88.7303 Cl  0  0  0  0  0  0  0  0  0  0  0  0
  125.7137  121.0381   88.8996 H   0  0  0  0  0  0  0  0  0  0  0  0
  124.4926  122.6757   85.8625 H   0  0  0  0  0  0  0  0  0  0  0  0
  120.3997  122.7502   87.2668 H   0  0  0  0  0  0  0  0  0  0  0  0
  123.4054  120.5614   89.4717 H   0  0  0  0  0  0  0  0  0  0  0  0
  1  2  2  0
  2  3  1  0
  3  4  1  0
  4  5  2  0
  5  6  1  0
  6  7  1  0
  6  8  2  0
  8  9  1  0
  9 10  1  0
  9 11  2  0
  2 12  1  0
 12 13  1  0
 12 14  1  0
 12 15  1  0
 11  4  1  0
  3 16  1  0
  5 17  1  0
  8 18  1  0
 11 19  1  0
M  END
>  <loss>  (19) 
0.7696419954299927

>  <score>  (19) 
2.641129970550537

$$$$
PAJDRXDZAGNFDG-UHFFFAOYSA-N
     RDKit          3D

 19 19  0  0  0  0  0  0  0  0999 V2000
  126.1946  120.6974   85.8422 O   0  0  0  0  0  0  0  0  0  0  0  0
  126.3585  120.6764   87.0621 C   0  0  0  0  0  0  0  0  0  0  0  0
  125.3704  121.0521   87.9820 N   0  0  0  0  0  0  0  0  0  0  0  0
  124.0765  121.5490   87.7131 C   0  0  0  0  0  0  0  0  0  0  0  0
  123.7494  122.3401   86.6097 C   0  0  0  0  0  0  0  0  0  0  0  0
  122.4362  122.7861   86.4290 C   0  0  0  0  0  0  0  0  0  0  0  0
  122.0474  123.7610   85.0635 Cl  0  0  0  0  0  0  0  0  0  0  0  0
  121.4364  122.4543   87.3371 C   0  0  0  0  0  0  0  0  0  0  0  0
  121.7609  121.6681   88.4354 C   0  0  0  0  0  0  0  0  0  0  0  0
  120.5404  121.2451   89.5727 Cl  0  0  0  0  0  0  0  0  0  0  0  0
  123.0685  121.2161   88.6277 C   0  0  0  0  0  0  0  0  0  0  0  0
  127.7024  120.2592   87.7207 C   0  0  0  0  0  0  0  0  0  0  0  0
  127.5052  118.6403   88.4593 Cl  0  0  0  0  0  0  0  0  0  0  0  0
  128.0752  121.4461   89.0033 Cl  0  0  0  0  0  0  0  0  0  0  0  0
  129.0214  120.2116   86.5326 Cl  0  0  0  0  0  0  0  0  0  0  0  0
  125.6187  120.9537   88.9768 H   0  0  0  0  0  0  0  0  0  0  0  0
  124.5266  122.6131   85.8808 H   0  0  0  0  0  0  0  0  0  0  0  0
  120.4057  122.8087   87.1881 H   0  0  0  0  0  0  0  0  0  0  0  0
  123.3085  120.5946   89.5030 H   0  0  0  0  0  0  0  0  0  0  0  0
  1  2  2  0
  2  3  1  0
  3  4  1  0
  4  5  2  0
  5  6  1  0
  6  7  1  0
  6  8  2  0
  8  9  1  0
  9 10  1  0
  9 11  2  0
  2 12  1  0
 12 13  1  0
 12 14  1  0
 12 15  1  0
 11  4  1  0
  3 16  1  0
  5 17  1  0
  8 18  1  0
 11 19  1  0
M  END
>  <loss>  (20) 
0.7719922661781311

>  <score>  (20) 
2.6452016830444336

$$$$
PAJDRXDZAGNFDG-UHFFFAOYSA-N
     RDKit          3D

 19 19  0  0  0  0  0  0  0  0999 V2000
  125.7715  119.2489   86.8519 O   0  0  0  0  0  0  0  0  0  0  0  0
  126.2690  120.0820   87.6093 C   0  0  0  0  0  0  0  0  0  0  0  0
  125.5900  121.2230   88.0582 N   0  0  0  0  0  0  0  0  0  0  0  0
  124.2427  121.5783   87.8301 C   0  0  0  0  0  0  0  0  0  0  0  0
  123.9697  122.3093   86.6663 C   0  0  0  0  0  0  0  0  0  0  0  0
  122.6628  122.7006   86.3666 C   0  0  0  0  0  0  0  0  0  0  0  0
  122.3532  123.5977   84.9309 Cl  0  0  0  0  0  0  0  0  0  0  0  0
  121.6121  122.3735   87.2145 C   0  0  0  0  0  0  0  0  0  0  0  0
  121.8818  121.6482   88.3702 C   0  0  0  0  0  0  0  0  0  0  0  0
  120.5884  121.2365   89.4302 Cl  0  0  0  0  0  0  0  0  0  0  0  0
  123.1858  121.2502   88.6821 C   0  0  0  0  0  0  0  0  0  0  0  0
  127.7109  119.9500   88.1723 C   0  0  0  0  0  0  0  0  0  0  0  0
  127.6614  120.3408   89.9160 Cl  0  0  0  0  0  0  0  0  0  0  0  0
  128.3556  118.3124   87.9367 Cl  0  0  0  0  0  0  0  0  0  0  0  0
  128.7595  121.1346   87.3358 Cl  0  0  0  0  0  0  0  0  0  0  0  0
  126.1417  121.8836   88.6240 H   0  0  0  0  0  0  0  0  0  0  0  0
  124.7901  122.5768   85.9842 H   0  0  0  0  0  0  0  0  0  0  0  0
  120.5838  122.6829   86.9758 H   0  0  0  0  0  0  0  0  0  0  0  0
  123.3795  120.6772   89.6009 H   0  0  0  0  0  0  0  0  0  0  0  0
  1  2  2  0
  2  3  1  0
  3  4  1  0
  4  5  2  0
  5  6  1  0
  6  7  1  0
  6  8  2  0
  8  9  1  0
  9 10  1  0
  9 11  2  0
  2 12  1  0
 12 13  1  0
 12 14  1  0
 12 15  1  0
 11  4  1  0
  3 16  1  0
  5 17  1  0
  8 18  1  0
 11 19  1  0
M  END
>  <loss>  (21) 
0.7560211420059204

>  <score>  (21) 
2.5240697860717773

$$$$
PAJDRXDZAGNFDG-UHFFFAOYSA-N
     RDKit          3D

 19 19  0  0  0  0  0  0  0  0999 V2000
  125.9965  120.3813   85.7808 O   0  0  0  0  0  0  0  0  0  0  0  0
  126.3498  120.6415   86.9309 C   0  0  0  0  0  0  0  0  0  0  0  0
  125.5197  121.2636   87.8734 N   0  0  0  0  0  0  0  0  0  0  0  0
  124.1556  121.6024   87.7405 C   0  0  0  0  0  0  0  0  0  0  0  0
  123.8042  122.3896   86.6359 C   0  0  0  0  0  0  0  0  0  0  0  0
  122.4756  122.7693   86.4314 C   0  0  0  0  0  0  0  0  0  0  0  0
  122.0693  123.7361   85.0668 Cl  0  0  0  0  0  0  0  0  0  0  0  0
  121.4807  122.3750   87.3171 C   0  0  0  0  0  0  0  0  0  0  0  0
  121.8283  121.5941   88.4143 C   0  0  0  0  0  0  0  0  0  0  0  0
  120.6046  121.0991   89.5203 Cl  0  0  0  0  0  0  0  0  0  0  0  0
  123.1547  121.2070   88.6306 C   0  0  0  0  0  0  0  0  0  0  0  0
  127.7582  120.2803   87.4782 C   0  0  0  0  0  0  0  0  0  0  0  0
  128.5855  119.2806   86.2494 Cl  0  0  0  0  0  0  0  0  0  0  0  0
  127.5631  119.3231   88.9782 Cl  0  0  0  0  0  0  0  0  0  0  0  0
  128.7156  121.7356   87.8228 Cl  0  0  0  0  0  0  0  0  0  0  0  0
  125.9590  121.5030   88.7737 H   0  0  0  0  0  0  0  0  0  0  0  0
  124.5797  122.7107   85.9250 H   0  0  0  0  0  0  0  0  0  0  0  0
  120.4352  122.6754   87.1534 H   0  0  0  0  0  0  0  0  0  0  0  0
  123.4103  120.5894   89.5043 H   0  0  0  0  0  0  0  0  0  0  0  0
  1  2  2  0
  2  3  1  0
  3  4  1  0
  4  5  2  0
  5  6  1  0
  6  7  1  0
  6  8  2  0
  8  9  1  0
  9 10  1  0
  9 11  2  0
  2 12  1  0
 12 13  1  0
 12 14  1  0
 12 15  1  0
 11  4  1  0
  3 16  1  0
  5 17  1  0
  8 18  1  0
 11 19  1  0
M  END
>  <loss>  (22) 
0.7692058086395264

>  <score>  (22) 
2.5848519802093506

$$$$
PAJDRXDZAGNFDG-UHFFFAOYSA-N
     RDKit          3D

 19 19  0  0  0  0  0  0  0  0999 V2000
  125.9524  119.8496   86.1633 O   0  0  0  0  0  0  0  0  0  0  0  0
  126.3622  120.4065   87.1817 C   0  0  0  0  0  0  0  0  0  0  0  0
  125.5739  121.2562   87.9697 N   0  0  0  0  0  0  0  0  0  0  0  0
  124.2171  121.6010   87.7861 C   0  0  0  0  0  0  0  0  0  0  0  0
  123.9078  122.3736   86.6588 C   0  0  0  0  0  0  0  0  0  0  0  0
  122.5893  122.7579   86.4042 C   0  0  0  0  0  0  0  0  0  0  0  0
  122.2351  123.7067   85.0127 Cl  0  0  0  0  0  0  0  0  0  0  0  0
  121.5627  122.3824   87.2615 C   0  0  0  0  0  0  0  0  0  0  0  0
  121.8684  121.6158   88.3810 C   0  0  0  0  0  0  0  0  0  0  0  0
  120.6052  121.1440   89.4522 Cl  0  0  0  0  0  0  0  0  0  0  0  0
  123.1844  121.2244   88.6476 C   0  0  0  0  0  0  0  0  0  0  0  0
  127.8056  120.2122   87.7223 C   0  0  0  0  0  0  0  0  0  0  0  0
  128.7207  119.2534   86.5229 Cl  0  0  0  0  0  0  0  0  0  0  0  0
  128.6140  121.7690   87.9972 Cl  0  0  0  0  0  0  0  0  0  0  0  0
  127.7200  119.3000   89.2596 Cl  0  0  0  0  0  0  0  0  0  0  0  0
  126.0419  121.6815   88.7828 H   0  0  0  0  0  0  0  0  0  0  0  0
  124.7088  122.6797   85.9698 H   0  0  0  0  0  0  0  0  0  0  0  0
  120.5253  122.6864   87.0583 H   0  0  0  0  0  0  0  0  0  0  0  0
  123.4066  120.6182   89.5382 H   0  0  0  0  0  0  0  0  0  0  0  0
  1  2  2  0
  2  3  1  0
  3  4  1  0
  4  5  2  0
  5  6  1  0
  6  7  1  0
  6  8  2  0
  8  9  1  0
  9 10  1  0
  9 11  2  0
  2 12  1  0
 12 13  1  0
 12 14  1  0
 12 15  1  0
 11  4  1  0
  3 16  1  0
  5 17  1  0
  8 18  1  0
 11 19  1  0
M  END
>  <loss>  (23) 
0.7695587873458862

>  <score>  (23) 
2.5003535747528076

$$$$
PAJDRXDZAGNFDG-UHFFFAOYSA-N
     RDKit          3D

 19 19  0  0  0  0  0  0  0  0999 V2000
  125.6666  119.1243   87.0309 O   0  0  0  0  0  0  0  0  0  0  0  0
  126.2319  120.0551   87.6045 C   0  0  0  0  0  0  0  0  0  0  0  0
  125.5818  121.2348   87.9922 N   0  0  0  0  0  0  0  0  0  0  0  0
  124.2280  121.5852   87.7971 C   0  0  0  0  0  0  0  0  0  0  0  0
  123.9255  122.3232   86.6450 C   0  0  0  0  0  0  0  0  0  0  0  0
  122.6103  122.7101   86.3775 C   0  0  0  0  0  0  0  0  0  0  0  0
  122.2643  123.6161   84.9557 Cl  0  0  0  0  0  0  0  0  0  0  0  0
  121.5805  122.3715   87.2462 C   0  0  0  0  0  0  0  0  0  0  0  0
  121.8795  121.6391   88.3901 C   0  0  0  0  0  0  0  0  0  0  0  0
  120.6121  121.2129   89.4755 Cl  0  0  0  0  0  0  0  0  0  0  0  0
  123.1920  121.2453   88.6698 C   0  0  0  0  0  0  0  0  0  0  0  0
  127.7415  120.0243   87.9699 C   0  0  0  0  0  0  0  0  0  0  0  0
  128.6074  121.1459   86.8780 Cl  0  0  0  0  0  0  0  0  0  0  0  0
  127.9202  120.5938   89.6558 Cl  0  0  0  0  0  0  0  0  0  0  0  0
  128.4186  118.3906   87.8115 Cl  0  0  0  0  0  0  0  0  0  0  0  0
  126.1631  121.9318   88.4793 H   0  0  0  0  0  0  0  0  0  0  0  0
  124.7291  122.5997   85.9467 H   0  0  0  0  0  0  0  0  0  0  0  0
  120.5457  122.6777   87.0329 H   0  0  0  0  0  0  0  0  0  0  0  0
  123.4090  120.6663   89.5796 H   0  0  0  0  0  0  0  0  0  0  0  0
  1  2  2  0
  2  3  1  0
  3  4  1  0
  4  5  2  0
  5  6  1  0
  6  7  1  0
  6  8  2  0
  8  9  1  0
  9 10  1  0
  9 11  2  0
  2 12  1  0
 12 13  1  0
 12 14  1  0
 12 15  1  0
 11  4  1  0
  3 16  1  0
  5 17  1  0
  8 18  1  0
 11 19  1  0
M  END
>  <loss>  (24) 
0.7779202461242676

>  <score>  (24) 
2.5208487510681152

$$$$
PAJDRXDZAGNFDG-UHFFFAOYSA-N
     RDKit          3D

 19 19  0  0  0  0  0  0  0  0999 V2000
  125.7073  119.1286   87.0229 O   0  0  0  0  0  0  0  0  0  0  0  0
  126.2364  120.0049   87.7066 C   0  0  0  0  0  0  0  0  0  0  0  0
  125.5868  121.1868   88.0878 N   0  0  0  0  0  0  0  0  0  0  0  0
  124.2480  121.5610   87.8408 C   0  0  0  0  0  0  0  0  0  0  0  0
  123.9996  122.2832   86.6661 C   0  0  0  0  0  0  0  0  0  0  0  0
  122.7026  122.6922   86.3476 C   0  0  0  0  0  0  0  0  0  0  0  0
  122.4232  123.5778   84.8986 Cl  0  0  0  0  0  0  0  0  0  0  0  0
  121.6376  122.3917   87.1874 C   0  0  0  0  0  0  0  0  0  0  0  0
  121.8829  121.6754   88.3541 C   0  0  0  0  0  0  0  0  0  0  0  0
  120.5716  121.2970   89.4044 Cl  0  0  0  0  0  0  0  0  0  0  0  0
  123.1768  121.2600   88.6848 C   0  0  0  0  0  0  0  0  0  0  0  0
  127.6864  119.8835   88.2511 C   0  0  0  0  0  0  0  0  0  0  0  0
  127.5918  119.6644   90.0221 Cl  0  0  0  0  0  0  0  0  0  0  0  0
  128.5626  121.4031   87.8944 Cl  0  0  0  0  0  0  0  0  0  0  0  0
  128.5460  118.5154   87.5144 Cl  0  0  0  0  0  0  0  0  0  0  0  0
  126.1561  121.8660   88.6127 H   0  0  0  0  0  0  0  0  0  0  0  0
  124.8316  122.5297   85.9901 H   0  0  0  0  0  0  0  0  0  0  0  0
  120.6171  122.7150   86.9339 H   0  0  0  0  0  0  0  0  0  0  0  0
  123.3511  120.6945   89.6121 H   0  0  0  0  0  0  0  0  0  0  0  0
  1  2  2  0
  2  3  1  0
  3  4  1  0
  4  5  2  0
  5  6  1  0
  6  7  1  0
  6  8  2  0
  8  9  1  0
  9 10  1  0
  9 11  2  0
  2 12  1  0
 12 13  1  0
 12 14  1  0
 12 15  1  0
 11  4  1  0
  3 16  1  0
  5 17  1  0
  8 18  1  0
 11 19  1  0
M  END
>  <loss>  (25) 
0.7530063986778259

>  <score>  (25) 
2.3068687915802

$$$$
