PYTDPHFRHFGRPB-UHFFFAOYSA-N
     RDKit          3D

 23 23  0  0  0  0  0  0  0  0999 V2000
  120.3181  123.7087   86.5456 C   0  0  0  0  0  0  0  0  0  0  0  0
  121.0874  122.5998   86.0934 O   0  0  0  0  0  0  0  0  0  0  0  0
  122.2110  122.2789   86.8208 C   0  0  0  0  0  0  0  0  0  0  0  0
  122.2040  121.7807   88.1263 C   0  0  0  0  0  0  0  0  0  0  0  0
  123.4100  121.4898   88.7670 C   0  0  0  0  0  0  0  0  0  0  0  0
  124.6175  121.6967   88.1040 C   0  0  0  0  0  0  0  0  0  0  0  0
  126.0962  121.3333   88.9074 Cl  0  0  0  0  0  0  0  0  0  0  0  0
  124.6397  122.1935   86.8009 C   0  0  0  0  0  0  0  0  0  0  0  0
  123.4393  122.4874   86.1516 C   0  0  0  0  0  0  0  0  0  0  0  0
  123.3566  122.9935   84.8345 N   0  0  0  0  0  0  0  0  0  0  0  0
  123.8872  122.4659   83.6577 C   0  0  0  0  0  0  0  0  0  0  0  0
  124.6288  121.4834   83.6272 O   0  0  0  0  0  0  0  0  0  0  0  0
  123.4557  123.2339   82.3801 C   0  0  0  0  0  0  0  0  0  0  0  0
  123.4785  124.9868   82.7355 Cl  0  0  0  0  0  0  0  0  0  0  0  0
  124.5440  122.8898   81.0162 Cl  0  0  0  0  0  0  0  0  0  0  0  0
  121.7899  122.7396   81.9552 Cl  0  0  0  0  0  0  0  0  0  0  0  0
  120.3078  123.7237   87.6454 H   0  0  0  0  0  0  0  0  0  0  0  0
  120.7641  124.6417   86.1704 H   0  0  0  0  0  0  0  0  0  0  0  0
  119.2881  123.6179   86.1704 H   0  0  0  0  0  0  0  0  0  0  0  0
  121.2497  121.6178   88.6486 H   0  0  0  0  0  0  0  0  0  0  0  0
  123.4066  121.0975   89.7946 H   0  0  0  0  0  0  0  0  0  0  0  0
  125.5990  122.3530   86.2869 H   0  0  0  0  0  0  0  0  0  0  0  0
  122.8320  123.8737   84.7294 H   0  0  0  0  0  0  0  0  0  0  0  0
  1  2  1  0
  2  3  1  0
  3  4  2  0
  4  5  1  0
  5  6  2  0
  6  7  1  0
  6  8  1  0
  8  9  2  0
  9 10  1  0
 10 11  1  0
 11 12  2  0
 11 13  1  0
 13 14  1  0
 13 15  1  0
 13 16  1  0
  9  3  1  0
  1 17  1  0
  1 18  1  0
  1 19  1  0
  4 20  1  0
  5 21  1  0
  8 22  1  0
 10 23  1  0
M  END
>  <loss>  (1) 
0.5998488664627075

>  <score>  (1) 
2.6067113876342773

$$$$
PYTDPHFRHFGRPB-UHFFFAOYSA-N
     RDKit          3D

 23 23  0  0  0  0  0  0  0  0999 V2000
  120.3247  123.6877   86.5676 C   0  0  0  0  0  0  0  0  0  0  0  0
  121.0484  122.5293   86.1672 O   0  0  0  0  0  0  0  0  0  0  0  0
  122.1930  122.2316   86.8714 C   0  0  0  0  0  0  0  0  0  0  0  0
  122.2227  121.7247   88.1732 C   0  0  0  0  0  0  0  0  0  0  0  0
  123.4474  121.4597   88.7894 C   0  0  0  0  0  0  0  0  0  0  0  0
  124.6367  121.7010   88.1057 C   0  0  0  0  0  0  0  0  0  0  0  0
  126.1388  121.3691   88.8789 Cl  0  0  0  0  0  0  0  0  0  0  0  0
  124.6223  122.2069   86.8059 C   0  0  0  0  0  0  0  0  0  0  0  0
  123.4031  122.4751   86.1811 C   0  0  0  0  0  0  0  0  0  0  0  0
  123.2833  122.9878   84.8694 N   0  0  0  0  0  0  0  0  0  0  0  0
  123.8371  122.5033   83.6849 C   0  0  0  0  0  0  0  0  0  0  0  0
  124.6793  121.6057   83.6456 O   0  0  0  0  0  0  0  0  0  0  0  0
  123.2927  123.2021   82.4106 C   0  0  0  0  0  0  0  0  0  0  0  0
  122.2118  122.0623   81.5550 Cl  0  0  0  0  0  0  0  0  0  0  0  0
  122.3948  124.6830   82.8148 Cl  0  0  0  0  0  0  0  0  0  0  0  0
  124.6754  123.6114   81.3521 Cl  0  0  0  0  0  0  0  0  0  0  0  0
  120.2928  123.7387   87.6659 H   0  0  0  0  0  0  0  0  0  0  0  0
  120.8227  124.5857   86.1731 H   0  0  0  0  0  0  0  0  0  0  0  0
  119.2993  123.6340   86.1731 H   0  0  0  0  0  0  0  0  0  0  0  0
  121.2827  121.5346   88.7119 H   0  0  0  0  0  0  0  0  0  0  0  0
  123.4729  121.0606   89.8141 H   0  0  0  0  0  0  0  0  0  0  0  0
  125.5676  122.3936   86.2754 H   0  0  0  0  0  0  0  0  0  0  0  0
  122.7073  123.8366   84.7755 H   0  0  0  0  0  0  0  0  0  0  0  0
  1  2  1  0
  2  3  1  0
  3  4  2  0
  4  5  1  0
  5  6  2  0
  6  7  1  0
  6  8  1  0
  8  9  2  0
  9 10  1  0
 10 11  1  0
 11 12  2  0
 11 13  1  0
 13 14  1  0
 13 15  1  0
 13 16  1  0
  9  3  1  0
  1 17  1  0
  1 18  1  0
  1 19  1  0
  4 20  1  0
  5 21  1  0
  8 22  1  0
 10 23  1  0
M  END
>  <loss>  (2) 
0.5939687490463257

>  <score>  (2) 
2.5595216751098633

$$$$
PYTDPHFRHFGRPB-UHFFFAOYSA-N
     RDKit          3D

 23 23  0  0  0  0  0  0  0  0999 V2000
  120.3368  123.7004   86.5353 C   0  0  0  0  0  0  0  0  0  0  0  0
  121.1156  122.6025   86.0724 O   0  0  0  0  0  0  0  0  0  0  0  0
  122.2371  122.2788   86.8018 C   0  0  0  0  0  0  0  0  0  0  0  0
  122.2259  121.7610   88.0996 C   0  0  0  0  0  0  0  0  0  0  0  0
  123.4302  121.4692   88.7432 C   0  0  0  0  0  0  0  0  0  0  0  0
  124.6400  121.6947   88.0907 C   0  0  0  0  0  0  0  0  0  0  0  0
  126.1166  121.3298   88.8976 Cl  0  0  0  0  0  0  0  0  0  0  0  0
  124.6664  122.2111   86.7953 C   0  0  0  0  0  0  0  0  0  0  0  0
  123.4678  122.5062   86.1433 C   0  0  0  0  0  0  0  0  0  0  0  0
  123.3894  123.0314   84.8334 N   0  0  0  0  0  0  0  0  0  0  0  0
  123.7676  122.4409   83.6280 C   0  0  0  0  0  0  0  0  0  0  0  0
  124.3424  121.3543   83.5544 O   0  0  0  0  0  0  0  0  0  0  0  0
  123.3963  123.2823   82.3780 C   0  0  0  0  0  0  0  0  0  0  0  0
  123.2469  122.1819   80.9758 Cl  0  0  0  0  0  0  0  0  0  0  0  0
  121.8652  124.1558   82.6139 Cl  0  0  0  0  0  0  0  0  0  0  0  0
  124.7120  124.4545   82.0706 Cl  0  0  0  0  0  0  0  0  0  0  0  0
  120.3313  123.7082   87.6352 H   0  0  0  0  0  0  0  0  0  0  0  0
  120.7712  124.6404   86.1641 H   0  0  0  0  0  0  0  0  0  0  0  0
  119.3061  123.6011   86.1641 H   0  0  0  0  0  0  0  0  0  0  0  0
  121.2697  121.5835   88.6136 H   0  0  0  0  0  0  0  0  0  0  0  0
  123.4235  121.0615   89.7648 H   0  0  0  0  0  0  0  0  0  0  0  0
  125.6277  122.3852   86.2896 H   0  0  0  0  0  0  0  0  0  0  0  0
  122.9988  123.9815   84.7589 H   0  0  0  0  0  0  0  0  0  0  0  0
  1  2  1  0
  2  3  1  0
  3  4  2  0
  4  5  1  0
  5  6  2  0
  6  7  1  0
  6  8  1  0
  8  9  2  0
  9 10  1  0
 10 11  1  0
 11 12  2  0
 11 13  1  0
 13 14  1  0
 13 15  1  0
 13 16  1  0
  9  3  1  0
  1 17  1  0
  1 18  1  0
  1 19  1  0
  4 20  1  0
  5 21  1  0
  8 22  1  0
 10 23  1  0
M  END
>  <loss>  (3) 
0.5951607823371887

>  <score>  (3) 
2.5483598709106445

$$$$
PYTDPHFRHFGRPB-UHFFFAOYSA-N
     RDKit          3D

 23 23  0  0  0  0  0  0  0  0999 V2000
  120.3685  123.7448   86.4924 C   0  0  0  0  0  0  0  0  0  0  0  0
  121.1245  122.6187   86.0604 O   0  0  0  0  0  0  0  0  0  0  0  0
  122.2408  122.2940   86.7973 C   0  0  0  0  0  0  0  0  0  0  0  0
  122.2206  121.7830   88.0977 C   0  0  0  0  0  0  0  0  0  0  0  0
  123.4202  121.4894   88.7490 C   0  0  0  0  0  0  0  0  0  0  0  0
  124.6344  121.7063   88.1018 C   0  0  0  0  0  0  0  0  0  0  0  0
  126.1051  121.3392   88.9182 Cl  0  0  0  0  0  0  0  0  0  0  0  0
  124.6698  122.2159   86.8039 C   0  0  0  0  0  0  0  0  0  0  0  0
  123.4759  122.5127   86.1441 C   0  0  0  0  0  0  0  0  0  0  0  0
  123.4065  123.0315   84.8312 N   0  0  0  0  0  0  0  0  0  0  0  0
  123.8163  122.4451   83.6341 C   0  0  0  0  0  0  0  0  0  0  0  0
  124.3948  121.3598   83.5720 O   0  0  0  0  0  0  0  0  0  0  0  0
  123.4752  123.2895   82.3774 C   0  0  0  0  0  0  0  0  0  0  0  0
  123.5809  122.2338   80.9373 Cl  0  0  0  0  0  0  0  0  0  0  0  0
  121.8421  123.9853   82.4857 Cl  0  0  0  0  0  0  0  0  0  0  0  0
  124.6776  124.6059   82.2336 Cl  0  0  0  0  0  0  0  0  0  0  0  0
  120.3492  123.7735   87.5918 H   0  0  0  0  0  0  0  0  0  0  0  0
  120.8318  124.6661   86.1096 H   0  0  0  0  0  0  0  0  0  0  0  0
  119.3404  123.6649   86.1096 H   0  0  0  0  0  0  0  0  0  0  0  0
  121.2610  121.6122   88.6075 H   0  0  0  0  0  0  0  0  0  0  0  0
  123.4065  121.0870   89.7727 H   0  0  0  0  0  0  0  0  0  0  0  0
  125.6344  122.3832   86.3024 H   0  0  0  0  0  0  0  0  0  0  0  0
  122.9967  123.9726   84.7469 H   0  0  0  0  0  0  0  0  0  0  0  0
  1  2  1  0
  2  3  1  0
  3  4  2  0
  4  5  1  0
  5  6  2  0
  6  7  1  0
  6  8  1  0
  8  9  2  0
  9 10  1  0
 10 11  1  0
 11 12  2  0
 11 13  1  0
 13 14  1  0
 13 15  1  0
 13 16  1  0
  9  3  1  0
  1 17  1  0
  1 18  1  0
  1 19  1  0
  4 20  1  0
  5 21  1  0
  8 22  1  0
 10 23  1  0
M  END
>  <loss>  (4) 
0.5949904322624207

>  <score>  (4) 
2.5461275577545166

$$$$
PYTDPHFRHFGRPB-UHFFFAOYSA-N
     RDKit          3D

 23 23  0  0  0  0  0  0  0  0999 V2000
  120.3009  123.6744   86.5566 C   0  0  0  0  0  0  0  0  0  0  0  0
  121.1137  122.6144   86.0647 O   0  0  0  0  0  0  0  0  0  0  0  0
  122.2317  122.2900   86.7992 C   0  0  0  0  0  0  0  0  0  0  0  0
  122.2145  121.7802   88.1002 C   0  0  0  0  0  0  0  0  0  0  0  0
  123.4156  121.4868   88.7489 C   0  0  0  0  0  0  0  0  0  0  0  0
  124.6283  121.7026   88.0984 C   0  0  0  0  0  0  0  0  0  0  0  0
  126.1008  121.3359   88.9117 Cl  0  0  0  0  0  0  0  0  0  0  0  0
  124.6606  122.2110   86.8000 C   0  0  0  0  0  0  0  0  0  0  0  0
  123.4653  122.5076   86.1428 C   0  0  0  0  0  0  0  0  0  0  0  0
  123.3929  123.0251   84.8295 N   0  0  0  0  0  0  0  0  0  0  0  0
  123.8417  122.4573   83.6375 C   0  0  0  0  0  0  0  0  0  0  0  0
  124.4656  121.3970   83.5824 O   0  0  0  0  0  0  0  0  0  0  0  0
  123.4816  123.2878   82.3770 C   0  0  0  0  0  0  0  0  0  0  0  0
  123.8602  125.0058   82.7008 Cl  0  0  0  0  0  0  0  0  0  0  0  0
  124.3935  122.7364   80.9531 Cl  0  0  0  0  0  0  0  0  0  0  0  0
  121.7282  123.1183   82.0665 Cl  0  0  0  0  0  0  0  0  0  0  0  0
  120.3097  123.6630   87.6566 H   0  0  0  0  0  0  0  0  0  0  0  0
  120.6953  124.6361   86.1968 H   0  0  0  0  0  0  0  0  0  0  0  0
  119.2698  123.5431   86.1968 H   0  0  0  0  0  0  0  0  0  0  0  0
  121.2560  121.6103   88.6125 H   0  0  0  0  0  0  0  0  0  0  0  0
  123.4042  121.0854   89.7730 H   0  0  0  0  0  0  0  0  0  0  0  0
  125.6241  122.3775   86.2959 H   0  0  0  0  0  0  0  0  0  0  0  0
  122.9470  123.9493   84.7407 H   0  0  0  0  0  0  0  0  0  0  0  0
  1  2  1  0
  2  3  1  0
  3  4  2  0
  4  5  1  0
  5  6  2  0
  6  7  1  0
  6  8  1  0
  8  9  2  0
  9 10  1  0
 10 11  1  0
 11 12  2  0
 11 13  1  0
 13 14  1  0
 13 15  1  0
 13 16  1  0
  9  3  1  0
  1 17  1  0
  1 18  1  0
  1 19  1  0
  4 20  1  0
  5 21  1  0
  8 22  1  0
 10 23  1  0
M  END
>  <loss>  (5) 
0.5994760990142822

>  <score>  (5) 
2.5629944801330566

$$$$
PYTDPHFRHFGRPB-UHFFFAOYSA-N
     RDKit          3D

 23 23  0  0  0  0  0  0  0  0999 V2000
  126.0125  124.1032   84.6912 C   0  0  0  0  0  0  0  0  0  0  0  0
  124.9888  123.1147   84.7219 O   0  0  0  0  0  0  0  0  0  0  0  0
  124.7213  122.5281   85.9381 C   0  0  0  0  0  0  0  0  0  0  0  0
  125.6812  121.9673   86.7847 C   0  0  0  0  0  0  0  0  0  0  0  0
  125.2915  121.3981   87.9986 C   0  0  0  0  0  0  0  0  0  0  0  0
  123.9473  121.3902   88.3635 C   0  0  0  0  0  0  0  0  0  0  0  0
  123.4826  120.6845   89.8636 Cl  0  0  0  0  0  0  0  0  0  0  0  0
  122.9783  121.9462   87.5285 C   0  0  0  0  0  0  0  0  0  0  0  0
  123.3576  122.5178   86.3127 C   0  0  0  0  0  0  0  0  0  0  0  0
  122.4530  123.1055   85.3994 N   0  0  0  0  0  0  0  0  0  0  0  0
  121.9710  122.5978   84.1933 C   0  0  0  0  0  0  0  0  0  0  0  0
  122.3757  121.5510   83.6864 O   0  0  0  0  0  0  0  0  0  0  0  0
  120.8653  123.4732   83.5457 C   0  0  0  0  0  0  0  0  0  0  0  0
  121.4278  125.1393   83.2804 Cl  0  0  0  0  0  0  0  0  0  0  0  0
  120.4072  122.7388   81.9807 Cl  0  0  0  0  0  0  0  0  0  0  0  0
  119.4416  123.4899   84.6291 Cl  0  0  0  0  0  0  0  0  0  0  0  0
  126.2923  124.3734   85.7201 H   0  0  0  0  0  0  0  0  0  0  0  0
  126.8920  123.7040   84.1648 H   0  0  0  0  0  0  0  0  0  0  0  0
  125.6443  124.9962   84.1648 H   0  0  0  0  0  0  0  0  0  0  0  0
  126.7424  121.9744   86.4951 H   0  0  0  0  0  0  0  0  0  0  0  0
  126.0457  120.9561   88.6664 H   0  0  0  0  0  0  0  0  0  0  0  0
  121.9195  121.9345   87.8268 H   0  0  0  0  0  0  0  0  0  0  0  0
  122.1012  124.0376   85.6608 H   0  0  0  0  0  0  0  0  0  0  0  0
  1  2  1  0
  2  3  1  0
  3  4  2  0
  4  5  1  0
  5  6  2  0
  6  7  1  0
  6  8  1  0
  8  9  2  0
  9 10  1  0
 10 11  1  0
 11 12  2  0
 11 13  1  0
 13 14  1  0
 13 15  1  0
 13 16  1  0
  9  3  1  0
  1 17  1  0
  1 18  1  0
  1 19  1  0
  4 20  1  0
  5 21  1  0
  8 22  1  0
 10 23  1  0
M  END
>  <loss>  (6) 
0.6774106025695801

>  <score>  (6) 
2.1515040397644043

$$$$
PYTDPHFRHFGRPB-UHFFFAOYSA-N
     RDKit          3D

 23 23  0  0  0  0  0  0  0  0999 V2000
  126.0825  124.0803   84.7204 C   0  0  0  0  0  0  0  0  0  0  0  0
  125.0247  123.1280   84.7395 O   0  0  0  0  0  0  0  0  0  0  0  0
  124.7350  122.5381   85.9490 C   0  0  0  0  0  0  0  0  0  0  0  0
  125.6807  121.9858   86.8169 C   0  0  0  0  0  0  0  0  0  0  0  0
  125.2688  121.4120   88.0214 C   0  0  0  0  0  0  0  0  0  0  0  0
  123.9167  121.3912   88.3555 C   0  0  0  0  0  0  0  0  0  0  0  0
  123.4246  120.6800   89.8442 Cl  0  0  0  0  0  0  0  0  0  0  0  0
  122.9618  121.9387   87.4989 C   0  0  0  0  0  0  0  0  0  0  0  0
  123.3633  122.5147   86.2924 C   0  0  0  0  0  0  0  0  0  0  0  0
  122.4743  123.0943   85.3589 N   0  0  0  0  0  0  0  0  0  0  0  0
  122.0322  122.5869   84.1375 C   0  0  0  0  0  0  0  0  0  0  0  0
  122.4844  121.5636   83.6230 O   0  0  0  0  0  0  0  0  0  0  0  0
  120.9137  123.4365   83.4776 C   0  0  0  0  0  0  0  0  0  0  0  0
  121.6693  124.8316   82.6513 Cl  0  0  0  0  0  0  0  0  0  0  0  0
  120.0697  122.4220   82.2703 Cl  0  0  0  0  0  0  0  0  0  0  0  0
  119.7456  124.0226   84.6837 Cl  0  0  0  0  0  0  0  0  0  0  0  0
  126.3653  124.3348   85.7525 H   0  0  0  0  0  0  0  0  0  0  0  0
  126.9507  123.6534   84.1970 H   0  0  0  0  0  0  0  0  0  0  0  0
  125.7489  124.9884   84.1970 H   0  0  0  0  0  0  0  0  0  0  0  0
  126.7481  122.0030   86.5516 H   0  0  0  0  0  0  0  0  0  0  0  0
  126.0117  120.9767   88.7060 H   0  0  0  0  0  0  0  0  0  0  0  0
  121.8967  121.9167   87.7729 H   0  0  0  0  0  0  0  0  0  0  0  0
  122.1014  124.0193   85.6163 H   0  0  0  0  0  0  0  0  0  0  0  0
  1  2  1  0
  2  3  1  0
  3  4  2  0
  4  5  1  0
  5  6  2  0
  6  7  1  0
  6  8  1  0
  8  9  2  0
  9 10  1  0
 10 11  1  0
 11 12  2  0
 11 13  1  0
 13 14  1  0
 13 15  1  0
 13 16  1  0
  9  3  1  0
  1 17  1  0
  1 18  1  0
  1 19  1  0
  4 20  1  0
  5 21  1  0
  8 22  1  0
 10 23  1  0
M  END
>  <loss>  (7) 
0.6773927807807922

>  <score>  (7) 
2.1354334354400635

$$$$
PYTDPHFRHFGRPB-UHFFFAOYSA-N
     RDKit          3D

 23 23  0  0  0  0  0  0  0  0999 V2000
  125.9942  124.1333   84.7129 C   0  0  0  0  0  0  0  0  0  0  0  0
  124.9895  123.1253   84.7338 O   0  0  0  0  0  0  0  0  0  0  0  0
  124.7216  122.5334   85.9473 C   0  0  0  0  0  0  0  0  0  0  0  0
  125.6816  121.9721   86.7934 C   0  0  0  0  0  0  0  0  0  0  0  0
  125.2915  121.3973   88.0045 C   0  0  0  0  0  0  0  0  0  0  0  0
  123.9467  121.3845   88.3672 C   0  0  0  0  0  0  0  0  0  0  0  0
  123.4814  120.6720   89.8640 Cl  0  0  0  0  0  0  0  0  0  0  0  0
  122.9775  121.9410   87.5327 C   0  0  0  0  0  0  0  0  0  0  0  0
  123.3573  122.5181   86.3196 C   0  0  0  0  0  0  0  0  0  0  0  0
  122.4526  123.1065   85.4069 N   0  0  0  0  0  0  0  0  0  0  0  0
  121.9780  122.6040   84.1957 C   0  0  0  0  0  0  0  0  0  0  0  0
  122.4209  121.5866   83.6618 O   0  0  0  0  0  0  0  0  0  0  0  0
  120.8334  123.4491   83.5758 C   0  0  0  0  0  0  0  0  0  0  0  0
  120.2971  122.7748   82.0200 Cl  0  0  0  0  0  0  0  0  0  0  0  0
  121.4282  125.1181   83.3310 Cl  0  0  0  0  0  0  0  0  0  0  0  0
  119.4600  123.4741   84.7216 Cl  0  0  0  0  0  0  0  0  0  0  0  0
  126.2638  124.4038   85.7445 H   0  0  0  0  0  0  0  0  0  0  0  0
  126.8838  123.7536   84.1890 H   0  0  0  0  0  0  0  0  0  0  0  0
  125.6115  125.0216   84.1890 H   0  0  0  0  0  0  0  0  0  0  0  0
  126.7432  121.9830   86.5056 H   0  0  0  0  0  0  0  0  0  0  0  0
  126.0457  120.9549   88.6720 H   0  0  0  0  0  0  0  0  0  0  0  0
  121.9183  121.9252   87.8291 H   0  0  0  0  0  0  0  0  0  0  0  0
  122.0944  124.0348   85.6732 H   0  0  0  0  0  0  0  0  0  0  0  0
  1  2  1  0
  2  3  1  0
  3  4  2  0
  4  5  1  0
  5  6  2  0
  6  7  1  0
  6  8  1  0
  8  9  2  0
  9 10  1  0
 10 11  1  0
 11 12  2  0
 11 13  1  0
 13 14  1  0
 13 15  1  0
 13 16  1  0
  9  3  1  0
  1 17  1  0
  1 18  1  0
  1 19  1  0
  4 20  1  0
  5 21  1  0
  8 22  1  0
 10 23  1  0
M  END
>  <loss>  (8) 
0.6798484325408936

>  <score>  (8) 
2.142178535461426

$$$$
PYTDPHFRHFGRPB-UHFFFAOYSA-N
     RDKit          3D

 23 23  0  0  0  0  0  0  0  0999 V2000
  125.9812  124.1879   84.7398 C   0  0  0  0  0  0  0  0  0  0  0  0
  125.0258  123.1328   84.7333 O   0  0  0  0  0  0  0  0  0  0  0  0
  124.7372  122.5421   85.9427 C   0  0  0  0  0  0  0  0  0  0  0  0
  125.6828  121.9831   86.8063 C   0  0  0  0  0  0  0  0  0  0  0  0
  125.2720  121.4093   88.0111 C   0  0  0  0  0  0  0  0  0  0  0  0
  123.9210  121.3952   88.3499 C   0  0  0  0  0  0  0  0  0  0  0  0
  123.4302  120.6840   89.8391 Cl  0  0  0  0  0  0  0  0  0  0  0  0
  122.9661  121.9493   87.4976 C   0  0  0  0  0  0  0  0  0  0  0  0
  123.3666  122.5254   86.2907 C   0  0  0  0  0  0  0  0  0  0  0  0
  122.4775  123.1115   85.3614 N   0  0  0  0  0  0  0  0  0  0  0  0
  121.9981  122.5923   84.1592 C   0  0  0  0  0  0  0  0  0  0  0  0
  122.4295  121.5600   83.6447 O   0  0  0  0  0  0  0  0  0  0  0  0
  120.8641  123.4390   83.5224 C   0  0  0  0  0  0  0  0  0  0  0  0
  119.7053  124.0006   84.7491 Cl  0  0  0  0  0  0  0  0  0  0  0  0
  120.0138  122.4319   82.3132 Cl  0  0  0  0  0  0  0  0  0  0  0  0
  121.5986  124.8498   82.7039 Cl  0  0  0  0  0  0  0  0  0  0  0  0
  126.2242  124.4562   85.7785 H   0  0  0  0  0  0  0  0  0  0  0  0
  126.8947  123.8586   84.2229 H   0  0  0  0  0  0  0  0  0  0  0  0
  125.5632  125.0643   84.2229 H   0  0  0  0  0  0  0  0  0  0  0  0
  126.7494  121.9951   86.5374 H   0  0  0  0  0  0  0  0  0  0  0  0
  126.0148  120.9688   88.6924 H   0  0  0  0  0  0  0  0  0  0  0  0
  121.9018  121.9326   87.7753 H   0  0  0  0  0  0  0  0  0  0  0  0
  122.1365  124.0522   85.6059 H   0  0  0  0  0  0  0  0  0  0  0  0
  1  2  1  0
  2  3  1  0
  3  4  2  0
  4  5  1  0
  5  6  2  0
  6  7  1  0
  6  8  1  0
  8  9  2  0
  9 10  1  0
 10 11  1  0
 11 12  2  0
 11 13  1  0
 13 14  1  0
 13 15  1  0
 13 16  1  0
  9  3  1  0
  1 17  1  0
  1 18  1  0
  1 19  1  0
  4 20  1  0
  5 21  1  0
  8 22  1  0
 10 23  1  0
M  END
>  <loss>  (9) 
0.6774483323097229

>  <score>  (9) 
2.1171367168426514

$$$$
PYTDPHFRHFGRPB-UHFFFAOYSA-N
     RDKit          3D

 23 23  0  0  0  0  0  0  0  0999 V2000
  126.0994  124.0521   84.7175 C   0  0  0  0  0  0  0  0  0  0  0  0
  125.0210  123.1235   84.7439 O   0  0  0  0  0  0  0  0  0  0  0  0
  124.7323  122.5334   85.9535 C   0  0  0  0  0  0  0  0  0  0  0  0
  125.6779  121.9744   86.8172 C   0  0  0  0  0  0  0  0  0  0  0  0
  125.2671  121.4013   88.0223 C   0  0  0  0  0  0  0  0  0  0  0  0
  123.9161  121.3877   88.3614 C   0  0  0  0  0  0  0  0  0  0  0  0
  123.4254  120.6773   89.8509 Cl  0  0  0  0  0  0  0  0  0  0  0  0
  122.9613  121.9419   87.5090 C   0  0  0  0  0  0  0  0  0  0  0  0
  123.3617  122.5174   86.3018 C   0  0  0  0  0  0  0  0  0  0  0  0
  122.4727  123.1035   85.3725 N   0  0  0  0  0  0  0  0  0  0  0  0
  121.9964  122.5858   84.1684 C   0  0  0  0  0  0  0  0  0  0  0  0
  122.4045  121.5356   83.6714 O   0  0  0  0  0  0  0  0  0  0  0  0
  120.8983  123.4591   83.5052 C   0  0  0  0  0  0  0  0  0  0  0  0
  120.1553  124.5705   84.6781 Cl  0  0  0  0  0  0  0  0  0  0  0  0
  119.6443  122.3778   82.8287 Cl  0  0  0  0  0  0  0  0  0  0  0  0
  121.6437  124.4004   82.1793 Cl  0  0  0  0  0  0  0  0  0  0  0  0
  126.3917  124.3039   85.7476 H   0  0  0  0  0  0  0  0  0  0  0  0
  126.9560  123.6045   84.1922 H   0  0  0  0  0  0  0  0  0  0  0  0
  125.7838  124.9657   84.1922 H   0  0  0  0  0  0  0  0  0  0  0  0
  126.7444  121.9858   86.5481 H   0  0  0  0  0  0  0  0  0  0  0  0
  126.0099  120.9607   88.7036 H   0  0  0  0  0  0  0  0  0  0  0  0
  121.8971  121.9257   87.7869 H   0  0  0  0  0  0  0  0  0  0  0  0
  122.1291  124.0428   85.6186 H   0  0  0  0  0  0  0  0  0  0  0  0
  1  2  1  0
  2  3  1  0
  3  4  2  0
  4  5  1  0
  5  6  2  0
  6  7  1  0
  6  8  1  0
  8  9  2  0
  9 10  1  0
 10 11  1  0
 11 12  2  0
 11 13  1  0
 13 14  1  0
 13 15  1  0
 13 16  1  0
  9  3  1  0
  1 17  1  0
  1 18  1  0
  1 19  1  0
  4 20  1  0
  5 21  1  0
  8 22  1  0
 10 23  1  0
M  END
>  <loss>  (10) 
0.677939772605896

>  <score>  (10) 
2.1129708290100098

$$$$
PYTDPHFRHFGRPB-UHFFFAOYSA-N
     RDKit          3D

 23 23  0  0  0  0  0  0  0  0999 V2000
  126.0493  124.0923   84.7113 C   0  0  0  0  0  0  0  0  0  0  0  0
  125.0248  123.1043   84.7291 O   0  0  0  0  0  0  0  0  0  0  0  0
  124.7356  122.5239   85.9433 C   0  0  0  0  0  0  0  0  0  0  0  0
  125.6805  121.9689   86.8103 C   0  0  0  0  0  0  0  0  0  0  0  0
  125.2693  121.4057   88.0200 C   0  0  0  0  0  0  0  0  0  0  0  0
  123.9186  121.3982   88.3603 C   0  0  0  0  0  0  0  0  0  0  0  0
  123.4273  120.7001   89.8555 Cl  0  0  0  0  0  0  0  0  0  0  0  0
  122.9644  121.9485   87.5047 C   0  0  0  0  0  0  0  0  0  0  0  0
  123.3653  122.5139   86.2929 C   0  0  0  0  0  0  0  0  0  0  0  0
  122.4770  123.0954   85.3600 N   0  0  0  0  0  0  0  0  0  0  0  0
  122.0146  122.5787   84.1501 C   0  0  0  0  0  0  0  0  0  0  0  0
  122.4499  121.5449   83.6418 O   0  0  0  0  0  0  0  0  0  0  0  0
  120.8941  123.4302   83.4960 C   0  0  0  0  0  0  0  0  0  0  0  0
  120.2960  122.6782   81.9995 Cl  0  0  0  0  0  0  0  0  0  0  0  0
  121.5542  125.0514   83.1282 Cl  0  0  0  0  0  0  0  0  0  0  0  0
  119.5480  123.5920   84.6629 Cl  0  0  0  0  0  0  0  0  0  0  0  0
  126.3225  124.3558   85.7438 H   0  0  0  0  0  0  0  0  0  0  0  0
  126.9320  123.6958   84.1883 H   0  0  0  0  0  0  0  0  0  0  0  0
  125.6850  124.9888   84.1883 H   0  0  0  0  0  0  0  0  0  0  0  0
  126.7468  121.9756   86.5402 H   0  0  0  0  0  0  0  0  0  0  0  0
  126.0116  120.9683   88.7039 H   0  0  0  0  0  0  0  0  0  0  0  0
  121.9004  121.9370   87.7835 H   0  0  0  0  0  0  0  0  0  0  0  0
  122.1221  124.0300   85.6080 H   0  0  0  0  0  0  0  0  0  0  0  0
  1  2  1  0
  2  3  1  0
  3  4  2  0
  4  5  1  0
  5  6  2  0
  6  7  1  0
  6  8  1  0
  8  9  2  0
  9 10  1  0
 10 11  1  0
 11 12  2  0
 11 13  1  0
 13 14  1  0
 13 15  1  0
 13 16  1  0
  9  3  1  0
  1 17  1  0
  1 18  1  0
  1 19  1  0
  4 20  1  0
  5 21  1  0
  8 22  1  0
 10 23  1  0
M  END
>  <loss>  (11) 
0.679793655872345

>  <score>  (11) 
2.1217780113220215

$$$$
PYTDPHFRHFGRPB-UHFFFAOYSA-N
     RDKit          3D

 23 23  0  0  0  0  0  0  0  0999 V2000
  126.0641  124.1079   84.7268 C   0  0  0  0  0  0  0  0  0  0  0  0
  125.0376  123.1218   84.7345 O   0  0  0  0  0  0  0  0  0  0  0  0
  124.7425  122.5348   85.9441 C   0  0  0  0  0  0  0  0  0  0  0  0
  125.6838  121.9818   86.8162 C   0  0  0  0  0  0  0  0  0  0  0  0
  125.2665  121.4112   88.0203 C   0  0  0  0  0  0  0  0  0  0  0  0
  123.9133  121.3942   88.3499 C   0  0  0  0  0  0  0  0  0  0  0  0
  123.4144  120.6869   89.8382 Cl  0  0  0  0  0  0  0  0  0  0  0  0
  122.9625  121.9424   87.4891 C   0  0  0  0  0  0  0  0  0  0  0  0
  123.3696  122.5153   86.2829 C   0  0  0  0  0  0  0  0  0  0  0  0
  122.4851  123.0954   85.3454 N   0  0  0  0  0  0  0  0  0  0  0  0
  122.0459  122.5868   84.1234 C   0  0  0  0  0  0  0  0  0  0  0  0
  122.5031  121.5660   83.6083 O   0  0  0  0  0  0  0  0  0  0  0  0
  120.9237  123.4317   83.4636 C   0  0  0  0  0  0  0  0  0  0  0  0
  121.6533  124.9156   82.7810 Cl  0  0  0  0  0  0  0  0  0  0  0  0
  120.1942  122.4715   82.1427 Cl  0  0  0  0  0  0  0  0  0  0  0  0
  119.6670  123.8758   84.6410 Cl  0  0  0  0  0  0  0  0  0  0  0  0
  126.3325  124.3658   85.7619 H   0  0  0  0  0  0  0  0  0  0  0  0
  126.9487  123.7123   84.2063 H   0  0  0  0  0  0  0  0  0  0  0  0
  125.7042  125.0077   84.2063 H   0  0  0  0  0  0  0  0  0  0  0  0
  126.7521  121.9959   86.5545 H   0  0  0  0  0  0  0  0  0  0  0  0
  126.0060  120.9753   88.7082 H   0  0  0  0  0  0  0  0  0  0  0  0
  121.8965  121.9235   87.7595 H   0  0  0  0  0  0  0  0  0  0  0  0
  122.1135  124.0217   85.5999 H   0  0  0  0  0  0  0  0  0  0  0  0
  1  2  1  0
  2  3  1  0
  3  4  2  0
  4  5  1  0
  5  6  2  0
  6  7  1  0
  6  8  1  0
  8  9  2  0
  9 10  1  0
 10 11  1  0
 11 12  2  0
 11 13  1  0
 13 14  1  0
 13 15  1  0
 13 16  1  0
  9  3  1  0
  1 17  1  0
  1 18  1  0
  1 19  1  0
  4 20  1  0
  5 21  1  0
  8 22  1  0
 10 23  1  0
M  END
>  <loss>  (12) 
0.6772761344909668

>  <score>  (12) 
2.1032662391662598

$$$$
PYTDPHFRHFGRPB-UHFFFAOYSA-N
     RDKit          3D

 23 23  0  0  0  0  0  0  0  0999 V2000
  126.0889  124.0511   84.7033 C   0  0  0  0  0  0  0  0  0  0  0  0
  125.0156  123.1167   84.7339 O   0  0  0  0  0  0  0  0  0  0  0  0
  124.7299  122.5309   85.9463 C   0  0  0  0  0  0  0  0  0  0  0  0
  125.6777  121.9762   86.8103 C   0  0  0  0  0  0  0  0  0  0  0  0
  125.2698  121.4071   88.0183 C   0  0  0  0  0  0  0  0  0  0  0  0
  123.9195  121.3932   88.3599 C   0  0  0  0  0  0  0  0  0  0  0  0
  123.4323  120.6878   89.8529 Cl  0  0  0  0  0  0  0  0  0  0  0  0
  122.9624  121.9432   87.5073 C   0  0  0  0  0  0  0  0  0  0  0  0
  123.3600  122.5146   86.2972 C   0  0  0  0  0  0  0  0  0  0  0  0
  122.4685  123.0962   85.3673 N   0  0  0  0  0  0  0  0  0  0  0  0
  122.0069  122.5821   84.1560 C   0  0  0  0  0  0  0  0  0  0  0  0
  122.4454  121.5518   83.6437 O   0  0  0  0  0  0  0  0  0  0  0  0
  120.8854  123.4340   83.5041 C   0  0  0  0  0  0  0  0  0  0  0  0
  119.5161  123.5475   84.6498 Cl  0  0  0  0  0  0  0  0  0  0  0  0
  121.5291  125.0728   83.1899 Cl  0  0  0  0  0  0  0  0  0  0  0  0
  120.3244  122.7121   81.9787 Cl  0  0  0  0  0  0  0  0  0  0  0  0
  126.3822  124.3065   85.7322 H   0  0  0  0  0  0  0  0  0  0  0  0
  126.9467  123.6071   84.1770 H   0  0  0  0  0  0  0  0  0  0  0  0
  125.7672  124.9619   84.1770 H   0  0  0  0  0  0  0  0  0  0  0  0
  126.7437  121.9878   86.5391 H   0  0  0  0  0  0  0  0  0  0  0  0
  126.0144  120.9699   88.6999 H   0  0  0  0  0  0  0  0  0  0  0  0
  121.8987  121.9267   87.7872 H   0  0  0  0  0  0  0  0  0  0  0  0
  122.1104  124.0285   85.6191 H   0  0  0  0  0  0  0  0  0  0  0  0
  1  2  1  0
  2  3  1  0
  3  4  2  0
  4  5  1  0
  5  6  2  0
  6  7  1  0
  6  8  1  0
  8  9  2  0
  9 10  1  0
 10 11  1  0
 11 12  2  0
 11 13  1  0
 13 14  1  0
 13 15  1  0
 13 16  1  0
  9  3  1  0
  1 17  1  0
  1 18  1  0
  1 19  1  0
  4 20  1  0
  5 21  1  0
  8 22  1  0
 10 23  1  0
M  END
>  <loss>  (13) 
0.6798609495162964

>  <score>  (13) 
2.1155571937561035

$$$$
PYTDPHFRHFGRPB-UHFFFAOYSA-N
     RDKit          3D

 23 23  0  0  0  0  0  0  0  0999 V2000
  126.0454  124.1232   84.7329 C   0  0  0  0  0  0  0  0  0  0  0  0
  125.0349  123.1207   84.7374 O   0  0  0  0  0  0  0  0  0  0  0  0
  124.7410  122.5334   85.9471 C   0  0  0  0  0  0  0  0  0  0  0  0
  125.6828  121.9773   86.8167 C   0  0  0  0  0  0  0  0  0  0  0  0
  125.2667  121.4068   88.0212 C   0  0  0  0  0  0  0  0  0  0  0  0
  123.9142  121.3932   88.3539 C   0  0  0  0  0  0  0  0  0  0  0  0
  123.4168  120.6861   89.8428 Cl  0  0  0  0  0  0  0  0  0  0  0  0
  122.9629  121.9446   87.4956 C   0  0  0  0  0  0  0  0  0  0  0  0
  123.3688  122.5173   86.2889 C   0  0  0  0  0  0  0  0  0  0  0  0
  122.4837  123.1004   85.3539 N   0  0  0  0  0  0  0  0  0  0  0  0
  122.0352  122.5909   84.1357 C   0  0  0  0  0  0  0  0  0  0  0  0
  122.4879  121.5693   83.6182 O   0  0  0  0  0  0  0  0  0  0  0  0
  120.9083  123.4356   83.4836 C   0  0  0  0  0  0  0  0  0  0  0  0
  121.6275  124.9367   82.8281 Cl  0  0  0  0  0  0  0  0  0  0  0  0
  119.6419  123.8495   84.6616 Cl  0  0  0  0  0  0  0  0  0  0  0  0
  120.1940  122.4898   82.1441 Cl  0  0  0  0  0  0  0  0  0  0  0  0
  126.3080  124.3837   85.7688 H   0  0  0  0  0  0  0  0  0  0  0  0
  126.9371  123.7427   84.2132 H   0  0  0  0  0  0  0  0  0  0  0  0
  125.6720  125.0179   84.2132 H   0  0  0  0  0  0  0  0  0  0  0  0
  126.7506  121.9888   86.5526 H   0  0  0  0  0  0  0  0  0  0  0  0
  126.0066  120.9685   88.7072 H   0  0  0  0  0  0  0  0  0  0  0  0
  121.8974  121.9282   87.7684 H   0  0  0  0  0  0  0  0  0  0  0  0
  122.1198  124.0300   85.6072 H   0  0  0  0  0  0  0  0  0  0  0  0
  1  2  1  0
  2  3  1  0
  3  4  2  0
  4  5  1  0
  5  6  2  0
  6  7  1  0
  6  8  1  0
  8  9  2  0
  9 10  1  0
 10 11  1  0
 11 12  2  0
 11 13  1  0
 13 14  1  0
 13 15  1  0
 13 16  1  0
  9  3  1  0
  1 17  1  0
  1 18  1  0
  1 19  1  0
  4 20  1  0
  5 21  1  0
  8 22  1  0
 10 23  1  0
M  END
>  <loss>  (14) 
0.677227795124054

>  <score>  (14) 
2.1014835834503174

$$$$
PYTDPHFRHFGRPB-UHFFFAOYSA-N
     RDKit          3D

 23 23  0  0  0  0  0  0  0  0999 V2000
  126.0352  124.1473   84.7359 C   0  0  0  0  0  0  0  0  0  0  0  0
  125.0412  123.1285   84.7337 O   0  0  0  0  0  0  0  0  0  0  0  0
  124.7441  122.5410   85.9425 C   0  0  0  0  0  0  0  0  0  0  0  0
  125.6840  121.9874   86.8159 C   0  0  0  0  0  0  0  0  0  0  0  0
  125.2648  121.4164   88.0191 C   0  0  0  0  0  0  0  0  0  0  0  0
  123.9110  121.3997   88.3467 C   0  0  0  0  0  0  0  0  0  0  0  0
  123.4098  120.6921   89.8341 Cl  0  0  0  0  0  0  0  0  0  0  0  0
  122.9617  121.9486   87.4847 C   0  0  0  0  0  0  0  0  0  0  0  0
  123.3707  122.5218   86.2793 C   0  0  0  0  0  0  0  0  0  0  0  0
  122.4878  123.1026   85.3408 N   0  0  0  0  0  0  0  0  0  0  0  0
  122.0432  122.5909   84.1221 C   0  0  0  0  0  0  0  0  0  0  0  0
  122.4894  121.5620   83.6137 O   0  0  0  0  0  0  0  0  0  0  0  0
  120.9220  123.4372   83.4624 C   0  0  0  0  0  0  0  0  0  0  0  0
  119.6570  123.8677   84.6360 Cl  0  0  0  0  0  0  0  0  0  0  0  0
  121.6551  124.9269   82.7978 Cl  0  0  0  0  0  0  0  0  0  0  0  0
  120.1998  122.4888   82.1283 Cl  0  0  0  0  0  0  0  0  0  0  0  0
  126.2901  124.4086   85.7736 H   0  0  0  0  0  0  0  0  0  0  0  0
  126.9347  123.7832   84.2180 H   0  0  0  0  0  0  0  0  0  0  0  0
  125.6489  125.0376   84.2180 H   0  0  0  0  0  0  0  0  0  0  0  0
  126.7528  122.0014   86.5558 H   0  0  0  0  0  0  0  0  0  0  0  0
  126.0031  120.9801   88.7079 H   0  0  0  0  0  0  0  0  0  0  0  0
  121.8953  121.9299   87.7536 H   0  0  0  0  0  0  0  0  0  0  0  0
  122.1223  124.0323   85.5917 H   0  0  0  0  0  0  0  0  0  0  0  0
  1  2  1  0
  2  3  1  0
  3  4  2  0
  4  5  1  0
  5  6  2  0
  6  7  1  0
  6  8  1  0
  8  9  2  0
  9 10  1  0
 10 11  1  0
 11 12  2  0
 11 13  1  0
 13 14  1  0
 13 15  1  0
 13 16  1  0
  9  3  1  0
  1 17  1  0
  1 18  1  0
  1 19  1  0
  4 20  1  0
  5 21  1  0
  8 22  1  0
 10 23  1  0
M  END
>  <loss>  (15) 
0.6774027943611145

>  <score>  (15) 
2.1011462211608887

$$$$
PYTDPHFRHFGRPB-UHFFFAOYSA-N
     RDKit          3D

 23 23  0  0  0  0  0  0  0  0999 V2000
  126.0341  124.1081   84.7052 C   0  0  0  0  0  0  0  0  0  0  0  0
  125.0060  123.1239   84.7262 O   0  0  0  0  0  0  0  0  0  0  0  0
  124.7268  122.5359   85.9390 C   0  0  0  0  0  0  0  0  0  0  0  0
  125.6800  121.9852   86.7998 C   0  0  0  0  0  0  0  0  0  0  0  0
  125.2786  121.4134   88.0087 C   0  0  0  0  0  0  0  0  0  0  0  0
  123.9294  121.3927   88.3544 C   0  0  0  0  0  0  0  0  0  0  0  0
  123.4502  120.6839   89.8484 Cl  0  0  0  0  0  0  0  0  0  0  0  0
  122.9670  121.9385   87.5050 C   0  0  0  0  0  0  0  0  0  0  0  0
  123.3581  122.5127   86.2941 C   0  0  0  0  0  0  0  0  0  0  0  0
  122.4610  123.0905   85.3674 N   0  0  0  0  0  0  0  0  0  0  0  0
  122.0127  122.5833   84.1481 C   0  0  0  0  0  0  0  0  0  0  0  0
  122.4658  121.5628   83.6287 O   0  0  0  0  0  0  0  0  0  0  0  0
  120.8857  123.4288   83.4976 C   0  0  0  0  0  0  0  0  0  0  0  0
  119.5859  123.6703   84.7028 Cl  0  0  0  0  0  0  0  0  0  0  0  0
  120.2186  122.6250   82.0582 Cl  0  0  0  0  0  0  0  0  0  0  0  0
  121.5644  125.0178   83.0354 Cl  0  0  0  0  0  0  0  0  0  0  0  0
  126.3100  124.3721   85.7368 H   0  0  0  0  0  0  0  0  0  0  0  0
  126.9145  123.7075   84.1813 H   0  0  0  0  0  0  0  0  0  0  0  0
  125.6724  125.0051   84.1813 H   0  0  0  0  0  0  0  0  0  0  0  0
  126.7450  122.0022   86.5254 H   0  0  0  0  0  0  0  0  0  0  0  0
  126.0273  120.9794   88.6876 H   0  0  0  0  0  0  0  0  0  0  0  0
  121.9043  121.9167   87.7882 H   0  0  0  0  0  0  0  0  0  0  0  0
  122.0865  124.0138   85.6286 H   0  0  0  0  0  0  0  0  0  0  0  0
  1  2  1  0
  2  3  1  0
  3  4  2  0
  4  5  1  0
  5  6  2  0
  6  7  1  0
  6  8  1  0
  8  9  2  0
  9 10  1  0
 10 11  1  0
 11 12  2  0
 11 13  1  0
 13 14  1  0
 13 15  1  0
 13 16  1  0
  9  3  1  0
  1 17  1  0
  1 18  1  0
  1 19  1  0
  4 20  1  0
  5 21  1  0
  8 22  1  0
 10 23  1  0
M  END
>  <loss>  (16) 
0.6797410845756531

>  <score>  (16) 
2.1098406314849854

$$$$
PYTDPHFRHFGRPB-UHFFFAOYSA-N
     RDKit          3D

 23 23  0  0  0  0  0  0  0  0999 V2000
  126.0487  124.0819   84.6936 C   0  0  0  0  0  0  0  0  0  0  0  0
  124.9981  123.1220   84.7254 O   0  0  0  0  0  0  0  0  0  0  0  0
  124.7241  122.5339   85.9393 C   0  0  0  0  0  0  0  0  0  0  0  0
  125.6802  121.9784   86.7936 C   0  0  0  0  0  0  0  0  0  0  0  0
  125.2839  121.4069   88.0044 C   0  0  0  0  0  0  0  0  0  0  0  0
  123.9368  121.3915   88.3584 C   0  0  0  0  0  0  0  0  0  0  0  0
  123.4640  120.6833   89.8548 Cl  0  0  0  0  0  0  0  0  0  0  0  0
  122.9715  121.9423   87.5156 C   0  0  0  0  0  0  0  0  0  0  0  0
  123.3575  122.5160   86.3029 C   0  0  0  0  0  0  0  0  0  0  0  0
  122.4571  123.0987   85.3824 N   0  0  0  0  0  0  0  0  0  0  0  0
  121.9940  122.5920   84.1685 C   0  0  0  0  0  0  0  0  0  0  0  0
  122.4263  121.5603   83.6535 O   0  0  0  0  0  0  0  0  0  0  0  0
  120.8715  123.4475   83.5232 C   0  0  0  0  0  0  0  0  0  0  0  0
  121.4056  125.1220   83.2515 Cl  0  0  0  0  0  0  0  0  0  0  0  0
  120.4193  122.7018   81.9618 Cl  0  0  0  0  0  0  0  0  0  0  0  0
  119.4521  123.4436   84.6122 Cl  0  0  0  0  0  0  0  0  0  0  0  0
  126.3364  124.3449   85.7222 H   0  0  0  0  0  0  0  0  0  0  0  0
  126.9166  123.6583   84.1669 H   0  0  0  0  0  0  0  0  0  0  0  0
  125.7049  124.9844   84.1669 H   0  0  0  0  0  0  0  0  0  0  0  0
  126.7437  121.9913   86.5127 H   0  0  0  0  0  0  0  0  0  0  0  0
  126.0351  120.9691   88.6782 H   0  0  0  0  0  0  0  0  0  0  0  0
  121.9105  121.9246   87.8053 H   0  0  0  0  0  0  0  0  0  0  0  0
  122.0925  124.0257   85.6443 H   0  0  0  0  0  0  0  0  0  0  0  0
  1  2  1  0
  2  3  1  0
  3  4  2  0
  4  5  1  0
  5  6  2  0
  6  7  1  0
  6  8  1  0
  8  9  2  0
  9 10  1  0
 10 11  1  0
 11 12  2  0
 11 13  1  0
 13 14  1  0
 13 15  1  0
 13 16  1  0
  9  3  1  0
  1 17  1  0
  1 18  1  0
  1 19  1  0
  4 20  1  0
  5 21  1  0
  8 22  1  0
 10 23  1  0
M  END
>  <loss>  (17) 
0.6774248480796814

>  <score>  (17) 
2.096942663192749

$$$$
PYTDPHFRHFGRPB-UHFFFAOYSA-N
     RDKit          3D

 23 23  0  0  0  0  0  0  0  0999 V2000
  126.0309  124.1185   84.7184 C   0  0  0  0  0  0  0  0  0  0  0  0
  125.0117  123.1248   84.7310 O   0  0  0  0  0  0  0  0  0  0  0  0
  124.7266  122.5359   85.9420 C   0  0  0  0  0  0  0  0  0  0  0  0
  125.6754  121.9830   86.8063 C   0  0  0  0  0  0  0  0  0  0  0  0
  125.2680  121.4104   88.0128 C   0  0  0  0  0  0  0  0  0  0  0  0
  123.9173  121.3912   88.3527 C   0  0  0  0  0  0  0  0  0  0  0  0
  123.4308  120.6815   89.8440 Cl  0  0  0  0  0  0  0  0  0  0  0  0
  122.9593  121.9392   87.4999 C   0  0  0  0  0  0  0  0  0  0  0  0
  123.3564  122.5142   86.2913 C   0  0  0  0  0  0  0  0  0  0  0  0
  122.4640  123.0942   85.3613 N   0  0  0  0  0  0  0  0  0  0  0  0
  122.0145  122.5855   84.1431 C   0  0  0  0  0  0  0  0  0  0  0  0
  122.4614  121.5600   83.6284 O   0  0  0  0  0  0  0  0  0  0  0  0
  120.8946  123.4365   83.4873 C   0  0  0  0  0  0  0  0  0  0  0  0
  119.5929  123.6890   84.6882 Cl  0  0  0  0  0  0  0  0  0  0  0  0
  120.2266  122.6335   82.0480 Cl  0  0  0  0  0  0  0  0  0  0  0  0
  121.5844  125.0201   83.0233 Cl  0  0  0  0  0  0  0  0  0  0  0  0
  126.3000  124.3809   85.7521 H   0  0  0  0  0  0  0  0  0  0  0  0
  126.9171  123.7281   84.1966 H   0  0  0  0  0  0  0  0  0  0  0  0
  125.6631  125.0143   84.1966 H   0  0  0  0  0  0  0  0  0  0  0  0
  126.7416  121.9989   86.5364 H   0  0  0  0  0  0  0  0  0  0  0  0
  126.0133  120.9747   88.6945 H   0  0  0  0  0  0  0  0  0  0  0  0
  121.8954  121.9185   87.7784 H   0  0  0  0  0  0  0  0  0  0  0  0
  122.0947  124.0205   85.6189 H   0  0  0  0  0  0  0  0  0  0  0  0
  1  2  1  0
  2  3  1  0
  3  4  2  0
  4  5  1  0
  5  6  2  0
  6  7  1  0
  6  8  1  0
  8  9  2  0
  9 10  1  0
 10 11  1  0
 11 12  2  0
 11 13  1  0
 13 14  1  0
 13 15  1  0
 13 16  1  0
  9  3  1  0
  1 17  1  0
  1 18  1  0
  1 19  1  0
  4 20  1  0
  5 21  1  0
  8 22  1  0
 10 23  1  0
M  END
>  <loss>  (18) 
0.679741382598877

>  <score>  (18) 
2.1074376106262207

$$$$
PYTDPHFRHFGRPB-UHFFFAOYSA-N
     RDKit          3D

 23 23  0  0  0  0  0  0  0  0999 V2000
  126.0978  124.0038   84.6688 C   0  0  0  0  0  0  0  0  0  0  0  0
  124.9714  123.1357   84.7297 O   0  0  0  0  0  0  0  0  0  0  0  0
  124.7047  122.5401   85.9416 C   0  0  0  0  0  0  0  0  0  0  0  0
  125.6653  121.9740   86.7838 C   0  0  0  0  0  0  0  0  0  0  0  0
  125.2765  121.3957   87.9937 C   0  0  0  0  0  0  0  0  0  0  0  0
  123.9323  121.3842   88.3590 C   0  0  0  0  0  0  0  0  0  0  0  0
  123.4687  120.6675   89.8542 Cl  0  0  0  0  0  0  0  0  0  0  0  0
  122.9626  121.9456   87.5284 C   0  0  0  0  0  0  0  0  0  0  0  0
  123.3411  122.5262   86.3166 C   0  0  0  0  0  0  0  0  0  0  0  0
  122.4359  123.1198   85.4079 N   0  0  0  0  0  0  0  0  0  0  0  0
  121.9587  122.6232   84.1953 C   0  0  0  0  0  0  0  0  0  0  0  0
  122.3834  121.5947   83.6678 O   0  0  0  0  0  0  0  0  0  0  0  0
  120.8308  123.4856   83.5689 C   0  0  0  0  0  0  0  0  0  0  0  0
  119.2594  122.6563   83.6467 Cl  0  0  0  0  0  0  0  0  0  0  0  0
  120.7378  125.0312   84.4638 Cl  0  0  0  0  0  0  0  0  0  0  0  0
  121.2461  123.8169   81.8605 Cl  0  0  0  0  0  0  0  0  0  0  0  0
  126.4230  124.2545   85.6893 H   0  0  0  0  0  0  0  0  0  0  0  0
  126.9186  123.5026   84.1351 H   0  0  0  0  0  0  0  0  0  0  0  0
  125.8221  124.9253   84.1351 H   0  0  0  0  0  0  0  0  0  0  0  0
  126.7264  121.9839   86.4940 H   0  0  0  0  0  0  0  0  0  0  0  0
  126.0311  120.9495   88.6581 H   0  0  0  0  0  0  0  0  0  0  0  0
  121.9040  121.9309   87.8269 H   0  0  0  0  0  0  0  0  0  0  0  0
  122.0793  124.0474   85.6788 H   0  0  0  0  0  0  0  0  0  0  0  0
  1  2  1  0
  2  3  1  0
  3  4  2  0
  4  5  1  0
  5  6  2  0
  6  7  1  0
  6  8  1  0
  8  9  2  0
  9 10  1  0
 10 11  1  0
 11 12  2  0
 11 13  1  0
 13 14  1  0
 13 15  1  0
 13 16  1  0
  9  3  1  0
  1 17  1  0
  1 18  1  0
  1 19  1  0
  4 20  1  0
  5 21  1  0
  8 22  1  0
 10 23  1  0
M  END
>  <loss>  (19) 
0.6813843846321106

>  <score>  (19) 
2.1134586334228516

$$$$
PYTDPHFRHFGRPB-UHFFFAOYSA-N
     RDKit          3D

 23 23  0  0  0  0  0  0  0  0999 V2000
  126.0255  124.1094   84.6935 C   0  0  0  0  0  0  0  0  0  0  0  0
  125.0045  123.1180   84.7174 O   0  0  0  0  0  0  0  0  0  0  0  0
  124.7286  122.5325   85.9322 C   0  0  0  0  0  0  0  0  0  0  0  0
  125.6833  121.9766   86.7879 C   0  0  0  0  0  0  0  0  0  0  0  0
  125.2853  121.4081   87.9995 C   0  0  0  0  0  0  0  0  0  0  0  0
  123.9380  121.3961   88.3530 C   0  0  0  0  0  0  0  0  0  0  0  0
  123.4630  120.6913   89.8503 Cl  0  0  0  0  0  0  0  0  0  0  0  0
  122.9742  121.9472   87.5088 C   0  0  0  0  0  0  0  0  0  0  0  0
  123.3619  122.5181   86.2952 C   0  0  0  0  0  0  0  0  0  0  0  0
  122.4630  123.1008   85.3732 N   0  0  0  0  0  0  0  0  0  0  0  0
  121.9910  122.5878   84.1654 C   0  0  0  0  0  0  0  0  0  0  0  0
  122.4124  121.5482   83.6575 O   0  0  0  0  0  0  0  0  0  0  0  0
  120.8812  123.4535   83.5116 C   0  0  0  0  0  0  0  0  0  0  0  0
  120.4245  122.7106   81.9496 Cl  0  0  0  0  0  0  0  0  0  0  0  0
  121.4351  125.1209   83.2363 Cl  0  0  0  0  0  0  0  0  0  0  0  0
  119.4596  123.4664   84.5969 Cl  0  0  0  0  0  0  0  0  0  0  0  0
  126.3010  124.3770   85.7242 H   0  0  0  0  0  0  0  0  0  0  0  0
  126.9079  123.7144   84.1688 H   0  0  0  0  0  0  0  0  0  0  0  0
  125.6565  125.0031   84.1688 H   0  0  0  0  0  0  0  0  0  0  0  0
  126.7468  121.9868   86.5074 H   0  0  0  0  0  0  0  0  0  0  0  0
  126.0352  120.9699   88.6745 H   0  0  0  0  0  0  0  0  0  0  0  0
  121.9130  121.9322   87.7980 H   0  0  0  0  0  0  0  0  0  0  0  0
  122.1075  124.0332   85.6286 H   0  0  0  0  0  0  0  0  0  0  0  0
  1  2  1  0
  2  3  1  0
  3  4  2  0
  4  5  1  0
  5  6  2  0
  6  7  1  0
  6  8  1  0
  8  9  2  0
  9 10  1  0
 10 11  1  0
 11 12  2  0
 11 13  1  0
 13 14  1  0
 13 15  1  0
 13 16  1  0
  9  3  1  0
  1 17  1  0
  1 18  1  0
  1 19  1  0
  4 20  1  0
  5 21  1  0
  8 22  1  0
 10 23  1  0
M  END
>  <loss>  (20) 
0.677598774433136

>  <score>  (20) 
2.0847439765930176

$$$$
PYTDPHFRHFGRPB-UHFFFAOYSA-N
     RDKit          3D

 23 23  0  0  0  0  0  0  0  0999 V2000
  126.0339  124.0938   84.6929 C   0  0  0  0  0  0  0  0  0  0  0  0
  124.9980  123.1180   84.7217 O   0  0  0  0  0  0  0  0  0  0  0  0
  124.7249  122.5304   85.9361 C   0  0  0  0  0  0  0  0  0  0  0  0
  125.6817  121.9742   86.7892 C   0  0  0  0  0  0  0  0  0  0  0  0
  125.2864  121.4034   88.0006 C   0  0  0  0  0  0  0  0  0  0  0  0
  123.9398  121.3893   88.3564 C   0  0  0  0  0  0  0  0  0  0  0  0
  123.4682  120.6817   89.8535 Cl  0  0  0  0  0  0  0  0  0  0  0  0
  122.9739  121.9408   87.5148 C   0  0  0  0  0  0  0  0  0  0  0  0
  123.3588  122.5139   86.3015 C   0  0  0  0  0  0  0  0  0  0  0  0
  122.4577  123.0971   85.3819 N   0  0  0  0  0  0  0  0  0  0  0  0
  121.9824  122.5846   84.1752 C   0  0  0  0  0  0  0  0  0  0  0  0
  122.4033  121.5457   83.6653 O   0  0  0  0  0  0  0  0  0  0  0  0
  120.8702  123.4499   83.5252 C   0  0  0  0  0  0  0  0  0  0  0  0
  120.4323  122.7263   81.9489 Cl  0  0  0  0  0  0  0  0  0  0  0  0
  119.4401  123.4343   84.5992 Cl  0  0  0  0  0  0  0  0  0  0  0  0
  121.4115  125.1260   83.2787 Cl  0  0  0  0  0  0  0  0  0  0  0  0
  126.3160  124.3595   85.7223 H   0  0  0  0  0  0  0  0  0  0  0  0
  126.9089  123.6842   84.1670 H   0  0  0  0  0  0  0  0  0  0  0  0
  125.6772  124.9917   84.1670 H   0  0  0  0  0  0  0  0  0  0  0  0
  126.7447  121.9860   86.5069 H   0  0  0  0  0  0  0  0  0  0  0  0
  126.0380  120.9650   88.6736 H   0  0  0  0  0  0  0  0  0  0  0  0
  121.9132  121.9241   87.8059 H   0  0  0  0  0  0  0  0  0  0  0  0
  122.1031  124.0295   85.6385 H   0  0  0  0  0  0  0  0  0  0  0  0
  1  2  1  0
  2  3  1  0
  3  4  2  0
  4  5  1  0
  5  6  2  0
  6  7  1  0
  6  8  1  0
  8  9  2  0
  9 10  1  0
 10 11  1  0
 11 12  2  0
 11 13  1  0
 13 14  1  0
 13 15  1  0
 13 16  1  0
  9  3  1  0
  1 17  1  0
  1 18  1  0
  1 19  1  0
  4 20  1  0
  5 21  1  0
  8 22  1  0
 10 23  1  0
M  END
>  <loss>  (21) 
0.6775662302970886

>  <score>  (21) 
2.081573724746704

$$$$
PYTDPHFRHFGRPB-UHFFFAOYSA-N
     RDKit          3D

 23 23  0  0  0  0  0  0  0  0999 V2000
  126.0228  124.1026   84.6922 C   0  0  0  0  0  0  0  0  0  0  0  0
  124.9934  123.1199   84.7207 O   0  0  0  0  0  0  0  0  0  0  0  0
  124.7215  122.5330   85.9358 C   0  0  0  0  0  0  0  0  0  0  0  0
  125.6791  121.9772   86.7883 C   0  0  0  0  0  0  0  0  0  0  0  0
  125.2850  121.4072   88.0004 C   0  0  0  0  0  0  0  0  0  0  0  0
  123.9387  121.3936   88.3576 C   0  0  0  0  0  0  0  0  0  0  0  0
  123.4685  120.6871   89.8556 Cl  0  0  0  0  0  0  0  0  0  0  0  0
  122.9720  121.9447   87.5166 C   0  0  0  0  0  0  0  0  0  0  0  0
  123.3558  122.5169   86.3025 C   0  0  0  0  0  0  0  0  0  0  0  0
  122.4538  123.0997   85.3835 N   0  0  0  0  0  0  0  0  0  0  0  0
  121.9880  122.5927   84.1708 C   0  0  0  0  0  0  0  0  0  0  0  0
  122.4205  121.5619   83.6542 O   0  0  0  0  0  0  0  0  0  0  0  0
  120.8678  123.4510   83.5253 C   0  0  0  0  0  0  0  0  0  0  0  0
  121.3973  125.1305   83.2771 Cl  0  0  0  0  0  0  0  0  0  0  0  0
  119.4410  123.4269   84.6039 Cl  0  0  0  0  0  0  0  0  0  0  0  0
  120.4296  122.7236   81.9509 Cl  0  0  0  0  0  0  0  0  0  0  0  0
  126.3030  124.3700   85.7218 H   0  0  0  0  0  0  0  0  0  0  0  0
  126.9006  123.6989   84.1664 H   0  0  0  0  0  0  0  0  0  0  0  0
  125.6603  124.9982   84.1664 H   0  0  0  0  0  0  0  0  0  0  0  0
  126.7418  121.9887   86.5048 H   0  0  0  0  0  0  0  0  0  0  0  0
  126.0372  120.9691   88.6729 H   0  0  0  0  0  0  0  0  0  0  0  0
  121.9116  121.9284   87.8088 H   0  0  0  0  0  0  0  0  0  0  0  0
  122.0904  124.0271   85.6458 H   0  0  0  0  0  0  0  0  0  0  0  0
  1  2  1  0
  2  3  1  0
  3  4  2  0
  4  5  1  0
  5  6  2  0
  6  7  1  0
  6  8  1  0
  8  9  2  0
  9 10  1  0
 10 11  1  0
 11 12  2  0
 11 13  1  0
 13 14  1  0
 13 15  1  0
 13 16  1  0
  9  3  1  0
  1 17  1  0
  1 18  1  0
  1 19  1  0
  4 20  1  0
  5 21  1  0
  8 22  1  0
 10 23  1  0
M  END
>  <loss>  (22) 
0.6775181293487549

>  <score>  (22) 
2.075179100036621

$$$$
PYTDPHFRHFGRPB-UHFFFAOYSA-N
     RDKit          3D

 23 23  0  0  0  0  0  0  0  0999 V2000
  126.0337  124.0956   84.6919 C   0  0  0  0  0  0  0  0  0  0  0  0
  124.9957  123.1220   84.7216 O   0  0  0  0  0  0  0  0  0  0  0  0
  124.7237  122.5338   85.9359 C   0  0  0  0  0  0  0  0  0  0  0  0
  125.6813  121.9789   86.7889 C   0  0  0  0  0  0  0  0  0  0  0  0
  125.2871  121.4073   88.0002 C   0  0  0  0  0  0  0  0  0  0  0  0
  123.9405  121.3911   88.3561 C   0  0  0  0  0  0  0  0  0  0  0  0
  123.4701  120.6825   89.8531 Cl  0  0  0  0  0  0  0  0  0  0  0  0
  122.9736  121.9411   87.5146 C   0  0  0  0  0  0  0  0  0  0  0  0
  123.3576  122.5151   86.3014 C   0  0  0  0  0  0  0  0  0  0  0  0
  122.4555  123.0970   85.3819 N   0  0  0  0  0  0  0  0  0  0  0  0
  121.9871  122.5873   84.1713 C   0  0  0  0  0  0  0  0  0  0  0  0
  122.4164  121.5539   83.6574 O   0  0  0  0  0  0  0  0  0  0  0  0
  120.8704  123.4480   83.5229 C   0  0  0  0  0  0  0  0  0  0  0  0
  120.4253  122.7157   81.9526 Cl  0  0  0  0  0  0  0  0  0  0  0  0
  121.4083  125.1235   83.2652 Cl  0  0  0  0  0  0  0  0  0  0  0  0
  119.4458  123.4362   84.6043 Cl  0  0  0  0  0  0  0  0  0  0  0  0
  126.3169  124.3611   85.7211 H   0  0  0  0  0  0  0  0  0  0  0  0
  126.9076  123.6838   84.1658 H   0  0  0  0  0  0  0  0  0  0  0  0
  125.6788  124.9940   84.1658 H   0  0  0  0  0  0  0  0  0  0  0  0
  126.7444  121.9924   86.5064 H   0  0  0  0  0  0  0  0  0  0  0  0
  126.0394  120.9700   88.6731 H   0  0  0  0  0  0  0  0  0  0  0  0
  121.9130  121.9228   87.8057 H   0  0  0  0  0  0  0  0  0  0  0  0
  122.0942  124.0258   85.6420 H   0  0  0  0  0  0  0  0  0  0  0  0
  1  2  1  0
  2  3  1  0
  3  4  2  0
  4  5  1  0
  5  6  2  0
  6  7  1  0
  6  8  1  0
  8  9  2  0
  9 10  1  0
 10 11  1  0
 11 12  2  0
 11 13  1  0
 13 14  1  0
 13 15  1  0
 13 16  1  0
  9  3  1  0
  1 17  1  0
  1 18  1  0
  1 19  1  0
  4 20  1  0
  5 21  1  0
  8 22  1  0
 10 23  1  0
M  END
>  <loss>  (23) 
0.6776596307754517

>  <score>  (23) 
2.0744845867156982

$$$$
PYTDPHFRHFGRPB-UHFFFAOYSA-N
     RDKit          3D

 23 23  0  0  0  0  0  0  0  0999 V2000
  125.9842  124.1289   84.6876 C   0  0  0  0  0  0  0  0  0  0  0  0
  124.9700  123.1305   84.7164 O   0  0  0  0  0  0  0  0  0  0  0  0
  124.7058  122.5415   85.9321 C   0  0  0  0  0  0  0  0  0  0  0  0
  125.6696  121.9917   86.7814 C   0  0  0  0  0  0  0  0  0  0  0  0
  125.2830  121.4186   87.9946 C   0  0  0  0  0  0  0  0  0  0  0  0
  123.9379  121.3961   88.3560 C   0  0  0  0  0  0  0  0  0  0  0  0
  123.4771  120.6861   89.8552 Cl  0  0  0  0  0  0  0  0  0  0  0  0
  122.9651  121.9412   87.5182 C   0  0  0  0  0  0  0  0  0  0  0  0
  123.3413  122.5164   86.3031 C   0  0  0  0  0  0  0  0  0  0  0  0
  122.4328  123.0937   85.3872 N   0  0  0  0  0  0  0  0  0  0  0  0
  121.9737  122.5884   84.1712 C   0  0  0  0  0  0  0  0  0  0  0  0
  122.4172  121.5648   83.6497 O   0  0  0  0  0  0  0  0  0  0  0  0
  120.8400  123.4343   83.5326 C   0  0  0  0  0  0  0  0  0  0  0  0
  119.3324  123.3120   84.4680 Cl  0  0  0  0  0  0  0  0  0  0  0  0
  121.3724  125.1407   83.4742 Cl  0  0  0  0  0  0  0  0  0  0  0  0
  120.5575  122.8468   81.8666 Cl  0  0  0  0  0  0  0  0  0  0  0  0
  126.2604  124.4008   85.7170 H   0  0  0  0  0  0  0  0  0  0  0  0
  126.8680  123.7387   84.1617 H   0  0  0  0  0  0  0  0  0  0  0  0
  125.6079  125.0187   84.1617 H   0  0  0  0  0  0  0  0  0  0  0  0
  126.7314  122.0102   86.4947 H   0  0  0  0  0  0  0  0  0  0  0  0
  126.0401  120.9852   88.6646 H   0  0  0  0  0  0  0  0  0  0  0  0
  121.9058  121.9179   87.8137 H   0  0  0  0  0  0  0  0  0  0  0  0
  122.0579  124.0150   85.6549 H   0  0  0  0  0  0  0  0  0  0  0  0
  1  2  1  0
  2  3  1  0
  3  4  2  0
  4  5  1  0
  5  6  2  0
  6  7  1  0
  6  8  1  0
  8  9  2  0
  9 10  1  0
 10 11  1  0
 11 12  2  0
 11 13  1  0
 13 14  1  0
 13 15  1  0
 13 16  1  0
  9  3  1  0
  1 17  1  0
  1 18  1  0
  1 19  1  0
  4 20  1  0
  5 21  1  0
  8 22  1  0
 10 23  1  0
M  END
>  <loss>  (24) 
0.6817178130149841

>  <score>  (24) 
2.08536434173584

$$$$
PYTDPHFRHFGRPB-UHFFFAOYSA-N
     RDKit          3D

 23 23  0  0  0  0  0  0  0  0999 V2000
  126.0679  124.0834   84.7106 C   0  0  0  0  0  0  0  0  0  0  0  0
  125.0294  123.1101   84.7295 O   0  0  0  0  0  0  0  0  0  0  0  0
  124.7383  122.5288   85.9428 C   0  0  0  0  0  0  0  0  0  0  0  0
  125.6813  121.9699   86.8093 C   0  0  0  0  0  0  0  0  0  0  0  0
  125.2682  121.4060   88.0180 C   0  0  0  0  0  0  0  0  0  0  0  0
  123.9173  121.4015   88.3577 C   0  0  0  0  0  0  0  0  0  0  0  0
  123.4235  120.7024   89.8516 Cl  0  0  0  0  0  0  0  0  0  0  0  0
  122.9649  121.9557   87.5025 C   0  0  0  0  0  0  0  0  0  0  0  0
  123.3678  122.5220   86.2918 C   0  0  0  0  0  0  0  0  0  0  0  0
  122.4814  123.1071   85.3594 N   0  0  0  0  0  0  0  0  0  0  0  0
  122.0035  122.5856   84.1576 C   0  0  0  0  0  0  0  0  0  0  0  0
  122.4144  121.5364   83.6609 O   0  0  0  0  0  0  0  0  0  0  0  0
  120.9020  123.4551   83.4948 C   0  0  0  0  0  0  0  0  0  0  0  0
  120.4245  122.6906   81.9496 Cl  0  0  0  0  0  0  0  0  0  0  0  0
  119.4879  123.5083   84.5885 Cl  0  0  0  0  0  0  0  0  0  0  0  0
  121.4781  125.1090   83.1855 Cl  0  0  0  0  0  0  0  0  0  0  0  0
  126.3454  124.3436   85.7427 H   0  0  0  0  0  0  0  0  0  0  0  0
  126.9445  123.6741   84.1872 H   0  0  0  0  0  0  0  0  0  0  0  0
  125.7161  124.9847   84.1872 H   0  0  0  0  0  0  0  0  0  0  0  0
  126.7478  121.9742   86.5397 H   0  0  0  0  0  0  0  0  0  0  0  0
  126.0090  120.9657   88.7015 H   0  0  0  0  0  0  0  0  0  0  0  0
  121.9008  121.9466   87.7809 H   0  0  0  0  0  0  0  0  0  0  0  0
  122.1414  124.0489   85.6009 H   0  0  0  0  0  0  0  0  0  0  0  0
  1  2  1  0
  2  3  1  0
  3  4  2  0
  4  5  1  0
  5  6  2  0
  6  7  1  0
  6  8  1  0
  8  9  2  0
  9 10  1  0
 10 11  1  0
 11 12  2  0
 11 13  1  0
 13 14  1  0
 13 15  1  0
 13 16  1  0
  9  3  1  0
  1 17  1  0
  1 18  1  0
  1 19  1  0
  4 20  1  0
  5 21  1  0
  8 22  1  0
 10 23  1  0
M  END
>  <loss>  (25) 
0.6776122450828552

>  <score>  (25) 
2.057217597961426

$$$$
