REHLJAXZKIIABG-UHFFFAOYSA-N
     RDKit          3D

 27 27  0  0  0  0  0  0  0  0999 V2000
  121.4022  120.9383   90.6809 C   0  0  0  0  0  0  0  0  0  0  0  0
  120.9989  121.2165   89.3453 O   0  0  0  0  0  0  0  0  0  0  0  0
  121.9846  121.5544   88.4585 C   0  0  0  0  0  0  0  0  0  0  0  0
  123.3478  121.3155   88.6205 C   0  0  0  0  0  0  0  0  0  0  0  0
  124.2578  121.7131   87.6337 C   0  0  0  0  0  0  0  0  0  0  0  0
  123.8105  122.3524   86.4780 C   0  0  0  0  0  0  0  0  0  0  0  0
  124.6589  122.7852   85.4355 N   0  0  0  0  0  0  0  0  0  0  0  0
  125.0716  122.0940   84.2972 C   0  0  0  0  0  0  0  0  0  0  0  0
  124.3460  121.3243   83.6660 O   0  0  0  0  0  0  0  0  0  0  0  0
  126.5399  122.3869   83.8899 C   0  0  0  0  0  0  0  0  0  0  0  0
  126.6283  123.6655   82.6556 Cl  0  0  0  0  0  0  0  0  0  0  0  0
  127.2650  120.8848   83.2436 Cl  0  0  0  0  0  0  0  0  0  0  0  0
  127.4424  122.9000   85.3462 Cl  0  0  0  0  0  0  0  0  0  0  0  0
  122.4315  122.5959   86.3105 C   0  0  0  0  0  0  0  0  0  0  0  0
  122.0864  123.2317   85.1386 O   0  0  0  0  0  0  0  0  0  0  0  0
  120.9577  124.0978   85.1848 C   0  0  0  0  0  0  0  0  0  0  0  0
  121.5311  122.1952   87.3013 C   0  0  0  0  0  0  0  0  0  0  0  0
  120.7046  121.4194   91.3823 H   0  0  0  0  0  0  0  0  0  0  0  0
  121.3971  119.8509   90.8465 H   0  0  0  0  0  0  0  0  0  0  0  0
  122.4168  121.3297   90.8465 H   0  0  0  0  0  0  0  0  0  0  0  0
  123.7108  120.8119   89.5286 H   0  0  0  0  0  0  0  0  0  0  0  0
  125.3320  121.5199   87.7708 H   0  0  0  0  0  0  0  0  0  0  0  0
  125.0232  123.7441   85.5289 H   0  0  0  0  0  0  0  0  0  0  0  0
  120.6937  124.3004   86.2332 H   0  0  0  0  0  0  0  0  0  0  0  0
  121.2004  125.0437   84.6784 H   0  0  0  0  0  0  0  0  0  0  0  0
  120.1068  123.6186   84.6784 H   0  0  0  0  0  0  0  0  0  0  0  0
  120.4557  122.3857   87.1697 H   0  0  0  0  0  0  0  0  0  0  0  0
  1  2  1  0
  2  3  1  0
  3  4  2  0
  4  5  1  0
  5  6  2  0
  6  7  1  0
  7  8  1  0
  8  9  2  0
  8 10  1  0
 10 11  1  0
 10 12  1  0
 10 13  1  0
  6 14  1  0
 14 15  1  0
 15 16  1  0
 14 17  2  0
 17  3  1  0
  1 18  1  0
  1 19  1  0
  1 20  1  0
  4 21  1  0
  5 22  1  0
  7 23  1  0
 16 24  1  0
 16 25  1  0
 16 26  1  0
 17 27  1  0
M  END
>  <loss>  (1) 
0.7625417709350586

>  <score>  (1) 
2.7987606525421143

$$$$
REHLJAXZKIIABG-UHFFFAOYSA-N
     RDKit          3D

 27 27  0  0  0  0  0  0  0  0999 V2000
  121.3851  120.9661   90.6855 C   0  0  0  0  0  0  0  0  0  0  0  0
  120.9868  121.2215   89.3438 O   0  0  0  0  0  0  0  0  0  0  0  0
  121.9742  121.5569   88.4581 C   0  0  0  0  0  0  0  0  0  0  0  0
  123.3367  121.3155   88.6218 C   0  0  0  0  0  0  0  0  0  0  0  0
  124.2486  121.7107   87.6358 C   0  0  0  0  0  0  0  0  0  0  0  0
  123.8039  122.3502   86.4792 C   0  0  0  0  0  0  0  0  0  0  0  0
  124.6544  122.7808   85.4375 N   0  0  0  0  0  0  0  0  0  0  0  0
  125.0688  122.0875   84.3011 C   0  0  0  0  0  0  0  0  0  0  0  0
  124.3457  121.3127   83.6733 O   0  0  0  0  0  0  0  0  0  0  0  0
  126.5360  122.3838   83.8923 C   0  0  0  0  0  0  0  0  0  0  0  0
  127.4446  122.8789   85.3511 Cl  0  0  0  0  0  0  0  0  0  0  0  0
  127.2566  120.8884   83.2260 Cl  0  0  0  0  0  0  0  0  0  0  0  0
  126.6215  123.6768   82.6729 Cl  0  0  0  0  0  0  0  0  0  0  0  0
  122.4256  122.5962   86.3099 C   0  0  0  0  0  0  0  0  0  0  0  0
  122.0831  123.2320   85.1372 O   0  0  0  0  0  0  0  0  0  0  0  0
  120.9251  124.0591   85.1683 C   0  0  0  0  0  0  0  0  0  0  0  0
  121.5233  122.1979   87.2999 C   0  0  0  0  0  0  0  0  0  0  0  0
  120.6644  121.4281   91.3762 H   0  0  0  0  0  0  0  0  0  0  0  0
  121.4147  119.8802   90.8588 H   0  0  0  0  0  0  0  0  0  0  0  0
  122.3842  121.3924   90.8588 H   0  0  0  0  0  0  0  0  0  0  0  0
  123.6977  120.8117   89.5306 H   0  0  0  0  0  0  0  0  0  0  0  0
  125.3223  121.5156   87.7744 H   0  0  0  0  0  0  0  0  0  0  0  0
  125.0190  123.7397   85.5299 H   0  0  0  0  0  0  0  0  0  0  0  0
  120.6452  124.2590   86.2131 H   0  0  0  0  0  0  0  0  0  0  0  0
  121.1396  125.0096   84.6579 H   0  0  0  0  0  0  0  0  0  0  0  0
  120.0955  123.5479   84.6579 H   0  0  0  0  0  0  0  0  0  0  0  0
  120.4484  122.3903   87.1669 H   0  0  0  0  0  0  0  0  0  0  0  0
  1  2  1  0
  2  3  1  0
  3  4  2  0
  4  5  1  0
  5  6  2  0
  6  7  1  0
  7  8  1  0
  8  9  2  0
  8 10  1  0
 10 11  1  0
 10 12  1  0
 10 13  1  0
  6 14  1  0
 14 15  1  0
 15 16  1  0
 14 17  2  0
 17  3  1  0
  1 18  1  0
  1 19  1  0
  1 20  1  0
  4 21  1  0
  5 22  1  0
  7 23  1  0
 16 24  1  0
 16 25  1  0
 16 26  1  0
 17 27  1  0
M  END
>  <loss>  (2) 
0.7626134753227234

>  <score>  (2) 
2.796793222427368

$$$$
REHLJAXZKIIABG-UHFFFAOYSA-N
     RDKit          3D

 27 27  0  0  0  0  0  0  0  0999 V2000
  121.4087  120.9601   90.6699 C   0  0  0  0  0  0  0  0  0  0  0  0
  120.9996  121.2241   89.3332 O   0  0  0  0  0  0  0  0  0  0  0  0
  121.9799  121.5648   88.4415 C   0  0  0  0  0  0  0  0  0  0  0  0
  123.3454  121.3377   88.6007 C   0  0  0  0  0  0  0  0  0  0  0  0
  124.2492  121.7368   87.6088 C   0  0  0  0  0  0  0  0  0  0  0  0
  123.7933  122.3659   86.4509 C   0  0  0  0  0  0  0  0  0  0  0  0
  124.6351  122.7996   85.4033 N   0  0  0  0  0  0  0  0  0  0  0  0
  125.0614  122.1004   84.2750 C   0  0  0  0  0  0  0  0  0  0  0  0
  124.3490  121.3128   83.6509 O   0  0  0  0  0  0  0  0  0  0  0  0
  126.5281  122.4062   83.8712 C   0  0  0  0  0  0  0  0  0  0  0  0
  126.6113  123.7204   82.6745 Cl  0  0  0  0  0  0  0  0  0  0  0  0
  127.4370  122.8775   85.3378 Cl  0  0  0  0  0  0  0  0  0  0  0  0
  127.2503  120.9235   83.1790 Cl  0  0  0  0  0  0  0  0  0  0  0  0
  122.4120  122.5975   86.2861 C   0  0  0  0  0  0  0  0  0  0  0  0
  122.0582  123.2238   85.1117 O   0  0  0  0  0  0  0  0  0  0  0  0
  120.9359  124.0979   85.1614 C   0  0  0  0  0  0  0  0  0  0  0  0
  121.5177  122.1953   87.2820 C   0  0  0  0  0  0  0  0  0  0  0  0
  120.6955  121.4204   91.3694 H   0  0  0  0  0  0  0  0  0  0  0  0
  121.4365  119.8732   90.8369 H   0  0  0  0  0  0  0  0  0  0  0  0
  122.4106  121.3824   90.8369 H   0  0  0  0  0  0  0  0  0  0  0  0
  123.7152  120.8421   89.5104 H   0  0  0  0  0  0  0  0  0  0  0  0
  125.3253  121.5531   87.7438 H   0  0  0  0  0  0  0  0  0  0  0  0
  124.9820  123.7660   85.4840 H   0  0  0  0  0  0  0  0  0  0  0  0
  120.6754  124.3008   86.2107 H   0  0  0  0  0  0  0  0  0  0  0  0
  121.1843  125.0428   84.6560 H   0  0  0  0  0  0  0  0  0  0  0  0
  120.0806  123.6256   84.6560 H   0  0  0  0  0  0  0  0  0  0  0  0
  120.4405  122.3765   87.1527 H   0  0  0  0  0  0  0  0  0  0  0  0
  1  2  1  0
  2  3  1  0
  3  4  2  0
  4  5  1  0
  5  6  2  0
  6  7  1  0
  7  8  1  0
  8  9  2  0
  8 10  1  0
 10 11  1  0
 10 12  1  0
 10 13  1  0
  6 14  1  0
 14 15  1  0
 15 16  1  0
 14 17  2  0
 17  3  1  0
  1 18  1  0
  1 19  1  0
  1 20  1  0
  4 21  1  0
  5 22  1  0
  7 23  1  0
 16 24  1  0
 16 25  1  0
 16 26  1  0
 17 27  1  0
M  END
>  <loss>  (3) 
0.7624699473381042

>  <score>  (3) 
2.763716459274292

$$$$
REHLJAXZKIIABG-UHFFFAOYSA-N
     RDKit          3D

 27 27  0  0  0  0  0  0  0  0999 V2000
  121.3837  120.9587   90.6763 C   0  0  0  0  0  0  0  0  0  0  0  0
  120.9847  121.2306   89.3381 O   0  0  0  0  0  0  0  0  0  0  0  0
  121.9734  121.5628   88.4526 C   0  0  0  0  0  0  0  0  0  0  0  0
  123.3342  121.3094   88.6129 C   0  0  0  0  0  0  0  0  0  0  0  0
  124.2478  121.7025   87.6276 C   0  0  0  0  0  0  0  0  0  0  0  0
  123.8065  122.3517   86.4752 C   0  0  0  0  0  0  0  0  0  0  0  0
  124.6589  122.7809   85.4343 N   0  0  0  0  0  0  0  0  0  0  0  0
  125.0654  122.0905   84.2934 C   0  0  0  0  0  0  0  0  0  0  0  0
  124.3339  121.3272   83.6611 O   0  0  0  0  0  0  0  0  0  0  0  0
  126.5349  122.3752   83.8846 C   0  0  0  0  0  0  0  0  0  0  0  0
  126.6299  123.6616   82.6589 Cl  0  0  0  0  0  0  0  0  0  0  0  0
  127.2473  120.8723   83.2263 Cl  0  0  0  0  0  0  0  0  0  0  0  0
  127.4445  122.8717   85.3423 Cl  0  0  0  0  0  0  0  0  0  0  0  0
  122.4300  122.6099   86.3093 C   0  0  0  0  0  0  0  0  0  0  0  0
  122.0909  123.2547   85.1406 O   0  0  0  0  0  0  0  0  0  0  0  0
  120.9096  124.0486   85.1632 C   0  0  0  0  0  0  0  0  0  0  0  0
  121.5260  122.2136   87.2986 C   0  0  0  0  0  0  0  0  0  0  0  0
  120.6804  121.4380   91.3732 H   0  0  0  0  0  0  0  0  0  0  0  0
  121.3840  119.8718   90.8452 H   0  0  0  0  0  0  0  0  0  0  0  0
  122.3954  121.3563   90.8452 H   0  0  0  0  0  0  0  0  0  0  0  0
  123.6925  120.7979   89.5184 H   0  0  0  0  0  0  0  0  0  0  0  0
  125.3200  121.4979   87.7634 H   0  0  0  0  0  0  0  0  0  0  0  0
  125.0318  123.7361   85.5315 H   0  0  0  0  0  0  0  0  0  0  0  0
  120.6190  124.2439   86.2060 H   0  0  0  0  0  0  0  0  0  0  0  0
  121.0994  125.0031   84.6505 H   0  0  0  0  0  0  0  0  0  0  0  0
  120.0975  123.5122   84.6505 H   0  0  0  0  0  0  0  0  0  0  0  0
  120.4525  122.4155   87.1684 H   0  0  0  0  0  0  0  0  0  0  0  0
  1  2  1  0
  2  3  1  0
  3  4  2  0
  4  5  1  0
  5  6  2  0
  6  7  1  0
  7  8  1  0
  8  9  2  0
  8 10  1  0
 10 11  1  0
 10 12  1  0
 10 13  1  0
  6 14  1  0
 14 15  1  0
 15 16  1  0
 14 17  2  0
 17  3  1  0
  1 18  1  0
  1 19  1  0
  1 20  1  0
  4 21  1  0
  5 22  1  0
  7 23  1  0
 16 24  1  0
 16 25  1  0
 16 26  1  0
 17 27  1  0
M  END
>  <loss>  (4) 
0.762713611125946

>  <score>  (4) 
2.754182815551758

$$$$
REHLJAXZKIIABG-UHFFFAOYSA-N
     RDKit          3D

 27 27  0  0  0  0  0  0  0  0999 V2000
  121.4330  120.9458   90.7007 C   0  0  0  0  0  0  0  0  0  0  0  0
  121.0098  121.2101   89.3684 O   0  0  0  0  0  0  0  0  0  0  0  0
  121.9804  121.5535   88.4671 C   0  0  0  0  0  0  0  0  0  0  0  0
  123.3474  121.3248   88.6102 C   0  0  0  0  0  0  0  0  0  0  0  0
  124.2404  121.7270   87.6098 C   0  0  0  0  0  0  0  0  0  0  0  0
  123.7722  122.3609   86.4594 C   0  0  0  0  0  0  0  0  0  0  0  0
  124.6025  122.7979   85.4042 N   0  0  0  0  0  0  0  0  0  0  0  0
  125.0409  122.0929   84.2843 C   0  0  0  0  0  0  0  0  0  0  0  0
  124.3301  121.3143   83.6470 O   0  0  0  0  0  0  0  0  0  0  0  0
  126.5181  122.3809   83.9069 C   0  0  0  0  0  0  0  0  0  0  0  0
  127.2715  120.8568   83.3516 Cl  0  0  0  0  0  0  0  0  0  0  0  0
  126.5454  123.5739   82.5743 Cl  0  0  0  0  0  0  0  0  0  0  0  0
  127.4292  123.0220   85.2943 Cl  0  0  0  0  0  0  0  0  0  0  0  0
  122.3892  122.5941   86.3110 C   0  0  0  0  0  0  0  0  0  0  0  0
  122.0229  123.2251   85.1430 O   0  0  0  0  0  0  0  0  0  0  0  0
  120.9525  124.1599   85.2251 C   0  0  0  0  0  0  0  0  0  0  0  0
  121.5058  122.1888   87.3153 C   0  0  0  0  0  0  0  0  0  0  0  0
  120.7183  121.3922   91.4077 H   0  0  0  0  0  0  0  0  0  0  0  0
  121.4782  119.8587   90.8622 H   0  0  0  0  0  0  0  0  0  0  0  0
  122.4297  121.3823   90.8622 H   0  0  0  0  0  0  0  0  0  0  0  0
  123.7270  120.8255   89.5139 H   0  0  0  0  0  0  0  0  0  0  0  0
  125.3178  121.5420   87.7320 H   0  0  0  0  0  0  0  0  0  0  0  0
  124.9295  123.7724   85.4712 H   0  0  0  0  0  0  0  0  0  0  0  0
  120.7218  124.3613   86.2817 H   0  0  0  0  0  0  0  0  0  0  0  0
  121.2450  125.0968   84.7286 H   0  0  0  0  0  0  0  0  0  0  0  0
  120.0634  123.7438   84.7286 H   0  0  0  0  0  0  0  0  0  0  0  0
  120.4274  122.3711   87.1986 H   0  0  0  0  0  0  0  0  0  0  0  0
  1  2  1  0
  2  3  1  0
  3  4  2  0
  4  5  1  0
  5  6  2  0
  6  7  1  0
  7  8  1  0
  8  9  2  0
  8 10  1  0
 10 11  1  0
 10 12  1  0
 10 13  1  0
  6 14  1  0
 14 15  1  0
 15 16  1  0
 14 17  2  0
 17  3  1  0
  1 18  1  0
  1 19  1  0
  1 20  1  0
  4 21  1  0
  5 22  1  0
  7 23  1  0
 16 24  1  0
 16 25  1  0
 16 26  1  0
 17 27  1  0
M  END
>  <loss>  (5) 
0.7589715719223022

>  <score>  (5) 
2.730128526687622

$$$$
REHLJAXZKIIABG-UHFFFAOYSA-N
     RDKit          3D

 27 27  0  0  0  0  0  0  0  0999 V2000
  121.3862  120.9715   90.6923 C   0  0  0  0  0  0  0  0  0  0  0  0
  120.9887  121.1956   89.3449 O   0  0  0  0  0  0  0  0  0  0  0  0
  121.9720  121.5419   88.4587 C   0  0  0  0  0  0  0  0  0  0  0  0
  123.3364  121.3085   88.6183 C   0  0  0  0  0  0  0  0  0  0  0  0
  124.2436  121.7145   87.6324 C   0  0  0  0  0  0  0  0  0  0  0  0
  123.7923  122.3569   86.4800 C   0  0  0  0  0  0  0  0  0  0  0  0
  124.6377  122.7983   85.4386 N   0  0  0  0  0  0  0  0  0  0  0  0
  125.0406  122.1195   84.2895 C   0  0  0  0  0  0  0  0  0  0  0  0
  124.2976  121.3882   83.6334 O   0  0  0  0  0  0  0  0  0  0  0  0
  126.5243  122.3672   83.9088 C   0  0  0  0  0  0  0  0  0  0  0  0
  126.5776  123.5461   82.5649 Cl  0  0  0  0  0  0  0  0  0  0  0  0
  127.2419  120.8206   83.3676 Cl  0  0  0  0  0  0  0  0  0  0  0  0
  127.4518  122.9990   85.2897 Cl  0  0  0  0  0  0  0  0  0  0  0  0
  122.4120  122.5950   86.3148 C   0  0  0  0  0  0  0  0  0  0  0  0
  122.0629  123.2344   85.1461 O   0  0  0  0  0  0  0  0  0  0  0  0
  120.9544  124.1253   85.2066 C   0  0  0  0  0  0  0  0  0  0  0  0
  121.5144  122.1858   87.3048 C   0  0  0  0  0  0  0  0  0  0  0  0
  120.6330  121.3961   91.3723 H   0  0  0  0  0  0  0  0  0  0  0  0
  121.4755  119.8901   90.8732 H   0  0  0  0  0  0  0  0  0  0  0  0
  122.3576  121.4549   90.8732 H   0  0  0  0  0  0  0  0  0  0  0  0
  123.7026  120.8025   89.5238 H   0  0  0  0  0  0  0  0  0  0  0  0
  125.3188  121.5258   87.7677 H   0  0  0  0  0  0  0  0  0  0  0  0
  125.0078  123.7539   85.5423 H   0  0  0  0  0  0  0  0  0  0  0  0
  120.7032  124.3272   86.2583 H   0  0  0  0  0  0  0  0  0  0  0  0
  121.2143  125.0687   84.7041 H   0  0  0  0  0  0  0  0  0  0  0  0
  120.0890  123.6686   84.7041 H   0  0  0  0  0  0  0  0  0  0  0  0
  120.4380  122.3719   87.1750 H   0  0  0  0  0  0  0  0  0  0  0  0
  1  2  1  0
  2  3  1  0
  3  4  2  0
  4  5  1  0
  5  6  2  0
  6  7  1  0
  7  8  1  0
  8  9  2  0
  8 10  1  0
 10 11  1  0
 10 12  1  0
 10 13  1  0
  6 14  1  0
 14 15  1  0
 15 16  1  0
 14 17  2  0
 17  3  1  0
  1 18  1  0
  1 19  1  0
  1 20  1  0
  4 21  1  0
  5 22  1  0
  7 23  1  0
 16 24  1  0
 16 25  1  0
 16 26  1  0
 17 27  1  0
M  END
>  <loss>  (6) 
0.7589860558509827

>  <score>  (6) 
2.727980375289917

$$$$
REHLJAXZKIIABG-UHFFFAOYSA-N
     RDKit          3D

 27 27  0  0  0  0  0  0  0  0999 V2000
  121.3849  120.9620   90.6739 C   0  0  0  0  0  0  0  0  0  0  0  0
  120.9875  121.2273   89.3339 O   0  0  0  0  0  0  0  0  0  0  0  0
  121.9764  121.5621   88.4496 C   0  0  0  0  0  0  0  0  0  0  0  0
  123.3382  121.3178   88.6143 C   0  0  0  0  0  0  0  0  0  0  0  0
  124.2519  121.7126   87.6298 C   0  0  0  0  0  0  0  0  0  0  0  0
  123.8096  122.3546   86.4736 C   0  0  0  0  0  0  0  0  0  0  0  0
  124.6619  122.7850   85.4333 N   0  0  0  0  0  0  0  0  0  0  0  0
  125.0737  122.0936   84.2949 C   0  0  0  0  0  0  0  0  0  0  0  0
  124.3500  121.3180   83.6688 O   0  0  0  0  0  0  0  0  0  0  0  0
  126.5389  122.3931   83.8813 C   0  0  0  0  0  0  0  0  0  0  0  0
  127.4548  122.8762   85.3396 Cl  0  0  0  0  0  0  0  0  0  0  0  0
  127.2561  120.9031   83.1992 Cl  0  0  0  0  0  0  0  0  0  0  0  0
  126.6186  123.6960   82.6720 Cl  0  0  0  0  0  0  0  0  0  0  0  0
  122.4319  122.6036   86.3033 C   0  0  0  0  0  0  0  0  0  0  0  0
  122.0918  123.2416   85.1311 O   0  0  0  0  0  0  0  0  0  0  0  0
  120.9255  124.0573   85.1577 C   0  0  0  0  0  0  0  0  0  0  0  0
  121.5278  122.2056   87.2918 C   0  0  0  0  0  0  0  0  0  0  0  0
  120.6749  121.4359   91.3676 H   0  0  0  0  0  0  0  0  0  0  0  0
  121.3950  119.8755   90.8451 H   0  0  0  0  0  0  0  0  0  0  0  0
  122.3922  121.3696   90.8451 H   0  0  0  0  0  0  0  0  0  0  0  0
  123.6974  120.8121   89.5227 H   0  0  0  0  0  0  0  0  0  0  0  0
  125.3250  121.5153   87.7691 H   0  0  0  0  0  0  0  0  0  0  0  0
  125.0303  123.7422   85.5287 H   0  0  0  0  0  0  0  0  0  0  0  0
  120.6410  124.2563   86.2014 H   0  0  0  0  0  0  0  0  0  0  0  0
  121.1320  125.0089   84.6460 H   0  0  0  0  0  0  0  0  0  0  0  0
  120.1024  123.5370   84.6460 H   0  0  0  0  0  0  0  0  0  0  0  0
  120.4535  122.4002   87.1581 H   0  0  0  0  0  0  0  0  0  0  0  0
  1  2  1  0
  2  3  1  0
  3  4  2  0
  4  5  1  0
  5  6  2  0
  6  7  1  0
  7  8  1  0
  8  9  2  0
  8 10  1  0
 10 11  1  0
 10 12  1  0
 10 13  1  0
  6 14  1  0
 14 15  1  0
 15 16  1  0
 14 17  2  0
 17  3  1  0
  1 18  1  0
  1 19  1  0
  1 20  1  0
  4 21  1  0
  5 22  1  0
  7 23  1  0
 16 24  1  0
 16 25  1  0
 16 26  1  0
 17 27  1  0
M  END
>  <loss>  (7) 
0.7626519203186035

>  <score>  (7) 
2.736471176147461

$$$$
REHLJAXZKIIABG-UHFFFAOYSA-N
     RDKit          3D

 27 27  0  0  0  0  0  0  0  0999 V2000
  121.3843  120.9588   90.6717 C   0  0  0  0  0  0  0  0  0  0  0  0
  120.9865  121.2275   89.3325 O   0  0  0  0  0  0  0  0  0  0  0  0
  121.9754  121.5622   88.4482 C   0  0  0  0  0  0  0  0  0  0  0  0
  123.3372  121.3173   88.6127 C   0  0  0  0  0  0  0  0  0  0  0  0
  124.2509  121.7121   87.6282 C   0  0  0  0  0  0  0  0  0  0  0  0
  123.8087  122.3546   86.4723 C   0  0  0  0  0  0  0  0  0  0  0  0
  124.6611  122.7852   85.4321 N   0  0  0  0  0  0  0  0  0  0  0  0
  125.0666  122.0967   84.2897 C   0  0  0  0  0  0  0  0  0  0  0  0
  124.3359  121.3314   83.6590 O   0  0  0  0  0  0  0  0  0  0  0  0
  126.5364  122.3807   83.8812 C   0  0  0  0  0  0  0  0  0  0  0  0
  127.2443  120.8765   83.2217 Cl  0  0  0  0  0  0  0  0  0  0  0  0
  127.4496  122.8751   85.3377 Cl  0  0  0  0  0  0  0  0  0  0  0  0
  126.6325  123.6684   82.6569 Cl  0  0  0  0  0  0  0  0  0  0  0  0
  122.4311  122.6043   86.3022 C   0  0  0  0  0  0  0  0  0  0  0  0
  122.0911  123.2429   85.1304 O   0  0  0  0  0  0  0  0  0  0  0  0
  120.9148  124.0443   85.1523 C   0  0  0  0  0  0  0  0  0  0  0  0
  121.5270  122.2063   87.2908 C   0  0  0  0  0  0  0  0  0  0  0  0
  120.6778  121.4359   91.3668 H   0  0  0  0  0  0  0  0  0  0  0  0
  121.3888  119.8721   90.8419 H   0  0  0  0  0  0  0  0  0  0  0  0
  122.3940  121.3608   90.8419 H   0  0  0  0  0  0  0  0  0  0  0  0
  123.6962  120.8111   89.5209 H   0  0  0  0  0  0  0  0  0  0  0  0
  125.3240  121.5144   87.7673 H   0  0  0  0  0  0  0  0  0  0  0  0
  125.0348  123.7399   85.5310 H   0  0  0  0  0  0  0  0  0  0  0  0
  120.6250  124.2417   86.1949 H   0  0  0  0  0  0  0  0  0  0  0  0
  121.1109  124.9974   84.6395 H   0  0  0  0  0  0  0  0  0  0  0  0
  120.0996  123.5129   84.6395 H   0  0  0  0  0  0  0  0  0  0  0  0
  120.4527  122.4015   87.1572 H   0  0  0  0  0  0  0  0  0  0  0  0
  1  2  1  0
  2  3  1  0
  3  4  2  0
  4  5  1  0
  5  6  2  0
  6  7  1  0
  7  8  1  0
  8  9  2  0
  8 10  1  0
 10 11  1  0
 10 12  1  0
 10 13  1  0
  6 14  1  0
 14 15  1  0
 15 16  1  0
 14 17  2  0
 17  3  1  0
  1 18  1  0
  1 19  1  0
  1 20  1  0
  4 21  1  0
  5 22  1  0
  7 23  1  0
 16 24  1  0
 16 25  1  0
 16 26  1  0
 17 27  1  0
M  END
>  <loss>  (8) 
0.762526273727417

>  <score>  (8) 
2.7290847301483154

$$$$
REHLJAXZKIIABG-UHFFFAOYSA-N
     RDKit          3D

 27 27  0  0  0  0  0  0  0  0999 V2000
  121.3881  120.9370   90.6738 C   0  0  0  0  0  0  0  0  0  0  0  0
  120.9831  121.2360   89.3432 O   0  0  0  0  0  0  0  0  0  0  0  0
  121.9700  121.5683   88.4556 C   0  0  0  0  0  0  0  0  0  0  0  0
  123.3320  121.3229   88.6170 C   0  0  0  0  0  0  0  0  0  0  0  0
  124.2434  121.7150   87.6293 C   0  0  0  0  0  0  0  0  0  0  0  0
  123.7986  122.3555   86.4733 C   0  0  0  0  0  0  0  0  0  0  0  0
  124.6485  122.7832   85.4299 N   0  0  0  0  0  0  0  0  0  0  0  0
  125.0535  122.0907   84.2897 C   0  0  0  0  0  0  0  0  0  0  0  0
  124.3166  121.3378   83.6512 O   0  0  0  0  0  0  0  0  0  0  0  0
  126.5270  122.3629   83.8870 C   0  0  0  0  0  0  0  0  0  0  0  0
  127.2414  120.8471   83.2604 Cl  0  0  0  0  0  0  0  0  0  0  0  0
  126.6356  123.6269   82.6393 Cl  0  0  0  0  0  0  0  0  0  0  0  0
  127.4253  122.8818   85.3436 Cl  0  0  0  0  0  0  0  0  0  0  0  0
  122.4208  122.6057   86.3063 C   0  0  0  0  0  0  0  0  0  0  0  0
  122.0781  123.2420   85.1340 O   0  0  0  0  0  0  0  0  0  0  0  0
  120.8939  124.0317   85.1530 C   0  0  0  0  0  0  0  0  0  0  0  0
  121.5189  122.2103   87.2980 C   0  0  0  0  0  0  0  0  0  0  0  0
  120.7122  121.4361   91.3837 H   0  0  0  0  0  0  0  0  0  0  0  0
  121.3490  119.8493   90.8332 H   0  0  0  0  0  0  0  0  0  0  0  0
  122.4162  121.2942   90.8332 H   0  0  0  0  0  0  0  0  0  0  0  0
  123.6931  120.8183   89.5253 H   0  0  0  0  0  0  0  0  0  0  0  0
  125.3167  121.5167   87.7660 H   0  0  0  0  0  0  0  0  0  0  0  0
  125.0207  123.7390   85.5242 H   0  0  0  0  0  0  0  0  0  0  0  0
  120.6004  124.2275   86.1949 H   0  0  0  0  0  0  0  0  0  0  0  0
  121.0814  124.9862   84.6394 H   0  0  0  0  0  0  0  0  0  0  0  0
  120.0848  123.4918   84.6394 H   0  0  0  0  0  0  0  0  0  0  0  0
  120.4444  122.4059   87.1669 H   0  0  0  0  0  0  0  0  0  0  0  0
  1  2  1  0
  2  3  1  0
  3  4  2  0
  4  5  1  0
  5  6  2  0
  6  7  1  0
  7  8  1  0
  8  9  2  0
  8 10  1  0
 10 11  1  0
 10 12  1  0
 10 13  1  0
  6 14  1  0
 14 15  1  0
 15 16  1  0
 14 17  2  0
 17  3  1  0
  1 18  1  0
  1 19  1  0
  1 20  1  0
  4 21  1  0
  5 22  1  0
  7 23  1  0
 16 24  1  0
 16 25  1  0
 16 26  1  0
 17 27  1  0
M  END
>  <loss>  (9) 
0.7628751993179321

>  <score>  (9) 
2.728503465652466

$$$$
REHLJAXZKIIABG-UHFFFAOYSA-N
     RDKit          3D

 27 27  0  0  0  0  0  0  0  0999 V2000
  121.4052  120.9925   90.6977 C   0  0  0  0  0  0  0  0  0  0  0  0
  121.0018  121.2022   89.3497 O   0  0  0  0  0  0  0  0  0  0  0  0
  121.9799  121.5477   88.4574 C   0  0  0  0  0  0  0  0  0  0  0  0
  123.3452  121.3145   88.6093 C   0  0  0  0  0  0  0  0  0  0  0  0
  124.2466  121.7196   87.6176 C   0  0  0  0  0  0  0  0  0  0  0  0
  123.7885  122.3608   86.4672 C   0  0  0  0  0  0  0  0  0  0  0  0
  124.6278  122.8010   85.4204 N   0  0  0  0  0  0  0  0  0  0  0  0
  125.0408  122.1135   84.2801 C   0  0  0  0  0  0  0  0  0  0  0  0
  124.3028  121.3795   83.6213 O   0  0  0  0  0  0  0  0  0  0  0  0
  126.5269  122.3610   83.9086 C   0  0  0  0  0  0  0  0  0  0  0  0
  127.4340  123.0412   85.2800 Cl  0  0  0  0  0  0  0  0  0  0  0  0
  126.5904  123.4992   82.5302 Cl  0  0  0  0  0  0  0  0  0  0  0  0
  127.2587  120.8030   83.4232 Cl  0  0  0  0  0  0  0  0  0  0  0  0
  122.4073  122.5985   86.3099 C   0  0  0  0  0  0  0  0  0  0  0  0
  122.0513  123.2367   85.1426 O   0  0  0  0  0  0  0  0  0  0  0  0
  120.9504  124.1364   85.2112 C   0  0  0  0  0  0  0  0  0  0  0  0
  121.5155  122.1904   87.3055 C   0  0  0  0  0  0  0  0  0  0  0  0
  120.6372  121.3918   91.3766 H   0  0  0  0  0  0  0  0  0  0  0  0
  121.5308  119.9150   90.8795 H   0  0  0  0  0  0  0  0  0  0  0  0
  122.3594  121.5087   90.8795 H   0  0  0  0  0  0  0  0  0  0  0  0
  123.7168  120.8095   89.5131 H   0  0  0  0  0  0  0  0  0  0  0  0
  125.3226  121.5309   87.7468 H   0  0  0  0  0  0  0  0  0  0  0  0
  124.9840  123.7631   85.5120 H   0  0  0  0  0  0  0  0  0  0  0  0
  120.7055  124.3365   86.2647 H   0  0  0  0  0  0  0  0  0  0  0  0
  121.2158  125.0794   84.7109 H   0  0  0  0  0  0  0  0  0  0  0  0
  120.0791  123.6885   84.7109 H   0  0  0  0  0  0  0  0  0  0  0  0
  120.4384  122.3763   87.1819 H   0  0  0  0  0  0  0  0  0  0  0  0
  1  2  1  0
  2  3  1  0
  3  4  2  0
  4  5  1  0
  5  6  2  0
  6  7  1  0
  7  8  1  0
  8  9  2  0
  8 10  1  0
 10 11  1  0
 10 12  1  0
 10 13  1  0
  6 14  1  0
 14 15  1  0
 15 16  1  0
 14 17  2  0
 17  3  1  0
  1 18  1  0
  1 19  1  0
  1 20  1  0
  4 21  1  0
  5 22  1  0
  7 23  1  0
 16 24  1  0
 16 25  1  0
 16 26  1  0
 17 27  1  0
M  END
>  <loss>  (10) 
0.7589471936225891

>  <score>  (10) 
2.7051360607147217

$$$$
REHLJAXZKIIABG-UHFFFAOYSA-N
     RDKit          3D

 27 27  0  0  0  0  0  0  0  0999 V2000
  121.3918  120.9502   90.6740 C   0  0  0  0  0  0  0  0  0  0  0  0
  120.9884  121.2373   89.3404 O   0  0  0  0  0  0  0  0  0  0  0  0
  121.9754  121.5693   88.4528 C   0  0  0  0  0  0  0  0  0  0  0  0
  123.3364  121.3162   88.6106 C   0  0  0  0  0  0  0  0  0  0  0  0
  124.2481  121.7090   87.6234 C   0  0  0  0  0  0  0  0  0  0  0  0
  123.8046  122.3577   86.4716 C   0  0  0  0  0  0  0  0  0  0  0  0
  124.6548  122.7866   85.4289 N   0  0  0  0  0  0  0  0  0  0  0  0
  125.0647  122.0933   84.2910 C   0  0  0  0  0  0  0  0  0  0  0  0
  124.3316  121.3377   83.6516 O   0  0  0  0  0  0  0  0  0  0  0  0
  126.5388  122.3686   83.8920 C   0  0  0  0  0  0  0  0  0  0  0  0
  127.2471  120.8635   83.2337 Cl  0  0  0  0  0  0  0  0  0  0  0  0
  126.6502  123.6574   82.6702 Cl  0  0  0  0  0  0  0  0  0  0  0  0
  127.4406  122.8547   85.3577 Cl  0  0  0  0  0  0  0  0  0  0  0  0
  122.4277  122.6156   86.3082 C   0  0  0  0  0  0  0  0  0  0  0  0
  122.0862  123.2598   85.1398 O   0  0  0  0  0  0  0  0  0  0  0  0
  120.9067  124.0562   85.1653 C   0  0  0  0  0  0  0  0  0  0  0  0
  121.5256  122.2195   87.2994 C   0  0  0  0  0  0  0  0  0  0  0  0
  120.7037  121.4398   91.3788 H   0  0  0  0  0  0  0  0  0  0  0  0
  121.3712  119.8626   90.8373 H   0  0  0  0  0  0  0  0  0  0  0  0
  122.4126  121.3262   90.8373 H   0  0  0  0  0  0  0  0  0  0  0  0
  123.6965  120.8051   89.5157 H   0  0  0  0  0  0  0  0  0  0  0  0
  125.3206  121.5046   87.7572 H   0  0  0  0  0  0  0  0  0  0  0  0
  125.0231  123.7440   85.5220 H   0  0  0  0  0  0  0  0  0  0  0  0
  120.6183  124.2509   86.2088 H   0  0  0  0  0  0  0  0  0  0  0  0
  121.0978  125.0109   84.6534 H   0  0  0  0  0  0  0  0  0  0  0  0
  120.0926  123.5222   84.6534 H   0  0  0  0  0  0  0  0  0  0  0  0
  120.4519  122.4212   87.1711 H   0  0  0  0  0  0  0  0  0  0  0  0
  1  2  1  0
  2  3  1  0
  3  4  2  0
  4  5  1  0
  5  6  2  0
  6  7  1  0
  7  8  1  0
  8  9  2  0
  8 10  1  0
 10 11  1  0
 10 12  1  0
 10 13  1  0
  6 14  1  0
 14 15  1  0
 15 16  1  0
 14 17  2  0
 17  3  1  0
  1 18  1  0
  1 19  1  0
  1 20  1  0
  4 21  1  0
  5 22  1  0
  7 23  1  0
 16 24  1  0
 16 25  1  0
 16 26  1  0
 17 27  1  0
M  END
>  <loss>  (11) 
0.7628786563873291

>  <score>  (11) 
2.716064691543579

$$$$
REHLJAXZKIIABG-UHFFFAOYSA-N
     RDKit          3D

 27 27  0  0  0  0  0  0  0  0999 V2000
  121.3348  121.2782   90.7344 C   0  0  0  0  0  0  0  0  0  0  0  0
  121.0271  121.1188   89.3546 O   0  0  0  0  0  0  0  0  0  0  0  0
  121.9937  121.4856   88.4584 C   0  0  0  0  0  0  0  0  0  0  0  0
  123.3638  121.2769   88.6018 C   0  0  0  0  0  0  0  0  0  0  0  0
  124.2521  121.7023   87.6068 C   0  0  0  0  0  0  0  0  0  0  0  0
  123.7760  122.3396   86.4616 C   0  0  0  0  0  0  0  0  0  0  0  0
  124.6011  122.7992   85.4119 N   0  0  0  0  0  0  0  0  0  0  0  0
  125.0398  122.1162   84.2786 C   0  0  0  0  0  0  0  0  0  0  0  0
  124.3223  121.3688   83.6122 O   0  0  0  0  0  0  0  0  0  0  0  0
  126.5247  122.3914   83.9221 C   0  0  0  0  0  0  0  0  0  0  0  0
  126.5864  123.6294   82.6321 Cl  0  0  0  0  0  0  0  0  0  0  0  0
  127.4356  122.9678   85.3378 Cl  0  0  0  0  0  0  0  0  0  0  0  0
  127.2531  120.8733   83.3200 Cl  0  0  0  0  0  0  0  0  0  0  0  0
  122.3898  122.5525   86.3128 C   0  0  0  0  0  0  0  0  0  0  0  0
  122.0156  123.1886   85.1500 O   0  0  0  0  0  0  0  0  0  0  0  0
  121.0122  124.1923   85.2599 C   0  0  0  0  0  0  0  0  0  0  0  0
  121.5112  122.1242   87.3117 C   0  0  0  0  0  0  0  0  0  0  0  0
  120.5210  120.8565   91.3427 H   0  0  0  0  0  0  0  0  0  0  0  0
  122.2738  120.7533   90.9637 H   0  0  0  0  0  0  0  0  0  0  0  0
  121.4473  122.3481   90.9637 H   0  0  0  0  0  0  0  0  0  0  0  0
  123.7496  120.7752   89.5015 H   0  0  0  0  0  0  0  0  0  0  0  0
  125.3321  121.5329   87.7292 H   0  0  0  0  0  0  0  0  0  0  0  0
  124.9235  123.7740   85.4951 H   0  0  0  0  0  0  0  0  0  0  0  0
  120.8104  124.3942   86.3223 H   0  0  0  0  0  0  0  0  0  0  0  0
  121.3607  125.1141   84.7713 H   0  0  0  0  0  0  0  0  0  0  0  0
  120.0903  123.8442   84.7713 H   0  0  0  0  0  0  0  0  0  0  0  0
  120.4302  122.2908   87.1947 H   0  0  0  0  0  0  0  0  0  0  0  0
  1  2  1  0
  2  3  1  0
  3  4  2  0
  4  5  1  0
  5  6  2  0
  6  7  1  0
  7  8  1  0
  8  9  2  0
  8 10  1  0
 10 11  1  0
 10 12  1  0
 10 13  1  0
  6 14  1  0
 14 15  1  0
 15 16  1  0
 14 17  2  0
 17  3  1  0
  1 18  1  0
  1 19  1  0
  1 20  1  0
  4 21  1  0
  5 22  1  0
  7 23  1  0
 16 24  1  0
 16 25  1  0
 16 26  1  0
 17 27  1  0
M  END
>  <loss>  (12) 
0.7597866654396057

>  <score>  (12) 
2.6705026626586914

$$$$
REHLJAXZKIIABG-UHFFFAOYSA-N
     RDKit          3D

 27 27  0  0  0  0  0  0  0  0999 V2000
  121.3926  120.8577   90.6499 C   0  0  0  0  0  0  0  0  0  0  0  0
  120.9900  121.2565   89.3450 O   0  0  0  0  0  0  0  0  0  0  0  0
  121.9843  121.5760   88.4610 C   0  0  0  0  0  0  0  0  0  0  0  0
  123.3421  121.3106   88.6260 C   0  0  0  0  0  0  0  0  0  0  0  0
  124.2621  121.6912   87.6418 C   0  0  0  0  0  0  0  0  0  0  0  0
  123.8301  122.3400   86.4856 C   0  0  0  0  0  0  0  0  0  0  0  0
  124.6893  122.7572   85.4455 N   0  0  0  0  0  0  0  0  0  0  0  0
  125.0208  122.0954   84.2640 C   0  0  0  0  0  0  0  0  0  0  0  0
  124.2095  121.4651   83.5844 O   0  0  0  0  0  0  0  0  0  0  0  0
  126.5172  122.2283   83.8756 C   0  0  0  0  0  0  0  0  0  0  0  0
  127.2699  120.6337   83.6374 Cl  0  0  0  0  0  0  0  0  0  0  0  0
  127.3724  123.1008   85.1821 Cl  0  0  0  0  0  0  0  0  0  0  0  0
  126.6297  123.1733   82.3613 Cl  0  0  0  0  0  0  0  0  0  0  0  0
  122.4565  122.6104   86.3149 C   0  0  0  0  0  0  0  0  0  0  0  0
  122.1266  123.2538   85.1427 O   0  0  0  0  0  0  0  0  0  0  0  0
  120.9594  124.0682   85.1623 C   0  0  0  0  0  0  0  0  0  0  0  0
  121.5461  122.2265   87.3032 C   0  0  0  0  0  0  0  0  0  0  0  0
  120.8206  121.4244   91.3993 H   0  0  0  0  0  0  0  0  0  0  0  0
  121.2022  119.7821   90.7797 H   0  0  0  0  0  0  0  0  0  0  0  0
  122.4664  121.0582   90.7797 H   0  0  0  0  0  0  0  0  0  0  0  0
  123.6931  120.7992   89.5345 H   0  0  0  0  0  0  0  0  0  0  0  0
  125.3320  121.4771   87.7813 H   0  0  0  0  0  0  0  0  0  0  0  0
  125.1322  123.6776   85.5779 H   0  0  0  0  0  0  0  0  0  0  0  0
  120.6704  124.2698   86.2044 H   0  0  0  0  0  0  0  0  0  0  0  0
  121.1667  125.0186   84.6489 H   0  0  0  0  0  0  0  0  0  0  0  0
  120.1389  123.5455   84.6489 H   0  0  0  0  0  0  0  0  0  0  0  0
  120.4749  122.4379   87.1692 H   0  0  0  0  0  0  0  0  0  0  0  0
  1  2  1  0
  2  3  1  0
  3  4  2  0
  4  5  1  0
  5  6  2  0
  6  7  1  0
  7  8  1  0
  8  9  2  0
  8 10  1  0
 10 11  1  0
 10 12  1  0
 10 13  1  0
  6 14  1  0
 14 15  1  0
 15 16  1  0
 14 17  2  0
 17  3  1  0
  1 18  1  0
  1 19  1  0
  1 20  1  0
  4 21  1  0
  5 22  1  0
  7 23  1  0
 16 24  1  0
 16 25  1  0
 16 26  1  0
 17 27  1  0
M  END
>  <loss>  (13) 
0.7627955079078674

>  <score>  (13) 
2.685324192047119

$$$$
REHLJAXZKIIABG-UHFFFAOYSA-N
     RDKit          3D

 27 27  0  0  0  0  0  0  0  0999 V2000
  121.4246  120.8573   90.6523 C   0  0  0  0  0  0  0  0  0  0  0  0
  121.0006  121.2773   89.3609 O   0  0  0  0  0  0  0  0  0  0  0  0
  121.9806  121.5945   88.4603 C   0  0  0  0  0  0  0  0  0  0  0  0
  123.3431  121.3455   88.6124 C   0  0  0  0  0  0  0  0  0  0  0  0
  124.2470  121.7217   87.6117 C   0  0  0  0  0  0  0  0  0  0  0  0
  123.7942  122.3495   86.4519 C   0  0  0  0  0  0  0  0  0  0  0  0
  124.6363  122.7609   85.3956 N   0  0  0  0  0  0  0  0  0  0  0  0
  124.9847  122.0735   84.2339 C   0  0  0  0  0  0  0  0  0  0  0  0
  124.1799  121.4427   83.5471 O   0  0  0  0  0  0  0  0  0  0  0  0
  126.4927  122.1718   83.8815 C   0  0  0  0  0  0  0  0  0  0  0  0
  127.1736  123.6128   84.6931 Cl  0  0  0  0  0  0  0  0  0  0  0  0
  126.6551  122.3588   82.1100 Cl  0  0  0  0  0  0  0  0  0  0  0  0
  127.3780  120.7206   84.4073 Cl  0  0  0  0  0  0  0  0  0  0  0  0
  122.4159  122.6033   86.2943 C   0  0  0  0  0  0  0  0  0  0  0  0
  122.0651  123.2265   85.1174 O   0  0  0  0  0  0  0  0  0  0  0  0
  120.9836  124.1502   85.1760 C   0  0  0  0  0  0  0  0  0  0  0  0
  121.5216  122.2239   87.2990 C   0  0  0  0  0  0  0  0  0  0  0  0
  120.8650  121.4116   91.4202 H   0  0  0  0  0  0  0  0  0  0  0  0
  121.2362  119.7797   90.7676 H   0  0  0  0  0  0  0  0  0  0  0  0
  122.5003  121.0559   90.7676 H   0  0  0  0  0  0  0  0  0  0  0  0
  123.7105  120.8508   89.5236 H   0  0  0  0  0  0  0  0  0  0  0  0
  125.3207  121.5208   87.7411 H   0  0  0  0  0  0  0  0  0  0  0  0
  125.0503  123.6985   85.4975 H   0  0  0  0  0  0  0  0  0  0  0  0
  120.7376  124.3604   86.2274 H   0  0  0  0  0  0  0  0  0  0  0  0
  121.2721  125.0850   84.6730 H   0  0  0  0  0  0  0  0  0  0  0  0
  120.1055  123.7191   84.6730 H   0  0  0  0  0  0  0  0  0  0  0  0
  120.4467  122.4223   87.1752 H   0  0  0  0  0  0  0  0  0  0  0  0
  1  2  1  0
  2  3  1  0
  3  4  2  0
  4  5  1  0
  5  6  2  0
  6  7  1  0
  7  8  1  0
  8  9  2  0
  8 10  1  0
 10 11  1  0
 10 12  1  0
 10 13  1  0
  6 14  1  0
 14 15  1  0
 15 16  1  0
 14 17  2  0
 17  3  1  0
  1 18  1  0
  1 19  1  0
  1 20  1  0
  4 21  1  0
  5 22  1  0
  7 23  1  0
 16 24  1  0
 16 25  1  0
 16 26  1  0
 17 27  1  0
M  END
>  <loss>  (14) 
0.771702229976654

>  <score>  (14) 
2.7291488647460938

$$$$
REHLJAXZKIIABG-UHFFFAOYSA-N
     RDKit          3D

 27 27  0  0  0  0  0  0  0  0999 V2000
  121.4352  120.8497   90.6542 C   0  0  0  0  0  0  0  0  0  0  0  0
  121.0053  121.2809   89.3685 O   0  0  0  0  0  0  0  0  0  0  0  0
  121.9813  121.6006   88.4643 C   0  0  0  0  0  0  0  0  0  0  0  0
  123.3451  121.3562   88.6121 C   0  0  0  0  0  0  0  0  0  0  0  0
  124.2444  121.7345   87.6081 C   0  0  0  0  0  0  0  0  0  0  0  0
  123.7857  122.3599   86.4493 C   0  0  0  0  0  0  0  0  0  0  0  0
  124.6229  122.7732   85.3899 N   0  0  0  0  0  0  0  0  0  0  0  0
  124.9810  122.0803   84.2344 C   0  0  0  0  0  0  0  0  0  0  0  0
  124.1836  121.4388   83.5489 O   0  0  0  0  0  0  0  0  0  0  0  0
  126.4888  122.1906   83.8851 C   0  0  0  0  0  0  0  0  0  0  0  0
  127.3879  120.7550   84.4299 Cl  0  0  0  0  0  0  0  0  0  0  0  0
  126.6527  122.3589   82.1120 Cl  0  0  0  0  0  0  0  0  0  0  0  0
  127.1538  123.6477   84.6814 Cl  0  0  0  0  0  0  0  0  0  0  0  0
  122.4060  122.6090   86.2961 C   0  0  0  0  0  0  0  0  0  0  0  0
  122.0492  123.2301   85.1198 O   0  0  0  0  0  0  0  0  0  0  0  0
  120.9991  124.1883   85.1911 C   0  0  0  0  0  0  0  0  0  0  0  0
  121.5163  122.2275   87.3041 C   0  0  0  0  0  0  0  0  0  0  0  0
  120.8842  121.4024   91.4294 H   0  0  0  0  0  0  0  0  0  0  0  0
  121.2409  119.7726   90.7637 H   0  0  0  0  0  0  0  0  0  0  0  0
  122.5129  121.0408   90.7637 H   0  0  0  0  0  0  0  0  0  0  0  0
  123.7171  120.8633   89.5224 H   0  0  0  0  0  0  0  0  0  0  0  0
  125.3192  121.5372   87.7341 H   0  0  0  0  0  0  0  0  0  0  0  0
  125.0244  123.7170   85.4838 H   0  0  0  0  0  0  0  0  0  0  0  0
  120.7669  124.4002   86.2452 H   0  0  0  0  0  0  0  0  0  0  0  0
  121.3148  125.1161   84.6915 H   0  0  0  0  0  0  0  0  0  0  0  0
  120.1040  123.7892   84.6915 H   0  0  0  0  0  0  0  0  0  0  0  0
  120.4404  122.4223   87.1837 H   0  0  0  0  0  0  0  0  0  0  0  0
  1  2  1  0
  2  3  1  0
  3  4  2  0
  4  5  1  0
  5  6  2  0
  6  7  1  0
  7  8  1  0
  8  9  2  0
  8 10  1  0
 10 11  1  0
 10 12  1  0
 10 13  1  0
  6 14  1  0
 14 15  1  0
 15 16  1  0
 14 17  2  0
 17  3  1  0
  1 18  1  0
  1 19  1  0
  1 20  1  0
  4 21  1  0
  5 22  1  0
  7 23  1  0
 16 24  1  0
 16 25  1  0
 16 26  1  0
 17 27  1  0
M  END
>  <loss>  (15) 
0.7715598344802856

>  <score>  (15) 
2.726428270339966

$$$$
REHLJAXZKIIABG-UHFFFAOYSA-N
     RDKit          3D

 27 27  0  0  0  0  0  0  0  0999 V2000
  121.4147  120.8634   90.6516 C   0  0  0  0  0  0  0  0  0  0  0  0
  120.9944  121.2989   89.3641 O   0  0  0  0  0  0  0  0  0  0  0  0
  121.9771  121.6090   88.4641 C   0  0  0  0  0  0  0  0  0  0  0  0
  123.3374  121.3483   88.6160 C   0  0  0  0  0  0  0  0  0  0  0  0
  124.2446  121.7181   87.6159 C   0  0  0  0  0  0  0  0  0  0  0  0
  123.7973  122.3514   86.4569 C   0  0  0  0  0  0  0  0  0  0  0  0
  124.6429  122.7570   85.4012 N   0  0  0  0  0  0  0  0  0  0  0  0
  124.9833  122.0692   84.2373 C   0  0  0  0  0  0  0  0  0  0  0  0
  124.1718  121.4469   83.5506 O   0  0  0  0  0  0  0  0  0  0  0  0
  126.4900  122.1619   83.8781 C   0  0  0  0  0  0  0  0  0  0  0  0
  127.3803  120.7272   84.4393 Cl  0  0  0  0  0  0  0  0  0  0  0  0
  127.1730  123.6249   84.6481 Cl  0  0  0  0  0  0  0  0  0  0  0  0
  126.6434  122.3022   82.1017 Cl  0  0  0  0  0  0  0  0  0  0  0  0
  122.4212  122.6171   86.2995 C   0  0  0  0  0  0  0  0  0  0  0  0
  122.0758  123.2449   85.1234 O   0  0  0  0  0  0  0  0  0  0  0  0
  120.9777  124.1491   85.1752 C   0  0  0  0  0  0  0  0  0  0  0  0
  121.5236  122.2439   87.3036 C   0  0  0  0  0  0  0  0  0  0  0  0
  120.8712  121.4265   91.4246 H   0  0  0  0  0  0  0  0  0  0  0  0
  121.2026  119.7898   90.7628 H   0  0  0  0  0  0  0  0  0  0  0  0
  122.4951  121.0372   90.7628 H   0  0  0  0  0  0  0  0  0  0  0  0
  123.7005  120.8491   89.5265 H   0  0  0  0  0  0  0  0  0  0  0  0
  125.3166  121.5079   87.7451 H   0  0  0  0  0  0  0  0  0  0  0  0
  125.0669  123.6899   85.5055 H   0  0  0  0  0  0  0  0  0  0  0  0
  120.7240  124.3581   86.2249 H   0  0  0  0  0  0  0  0  0  0  0  0
  121.2512  125.0874   84.6703 H   0  0  0  0  0  0  0  0  0  0  0  0
  120.1093  123.7007   84.6703 H   0  0  0  0  0  0  0  0  0  0  0  0
  120.4505  122.4516   87.1799 H   0  0  0  0  0  0  0  0  0  0  0  0
  1  2  1  0
  2  3  1  0
  3  4  2  0
  4  5  1  0
  5  6  2  0
  6  7  1  0
  7  8  1  0
  8  9  2  0
  8 10  1  0
 10 11  1  0
 10 12  1  0
 10 13  1  0
  6 14  1  0
 14 15  1  0
 15 16  1  0
 14 17  2  0
 17  3  1  0
  1 18  1  0
  1 19  1  0
  1 20  1  0
  4 21  1  0
  5 22  1  0
  7 23  1  0
 16 24  1  0
 16 25  1  0
 16 26  1  0
 17 27  1  0
M  END
>  <loss>  (16) 
0.7714543342590332

>  <score>  (16) 
2.725862503051758

$$$$
REHLJAXZKIIABG-UHFFFAOYSA-N
     RDKit          3D

 27 27  0  0  0  0  0  0  0  0999 V2000
  121.4059  120.8043   90.6474 C   0  0  0  0  0  0  0  0  0  0  0  0
  120.9953  121.2751   89.3692 O   0  0  0  0  0  0  0  0  0  0  0  0
  121.9848  121.5891   88.4779 C   0  0  0  0  0  0  0  0  0  0  0  0
  123.3421  121.3142   88.6320 C   0  0  0  0  0  0  0  0  0  0  0  0
  124.2569  121.6899   87.6412 C   0  0  0  0  0  0  0  0  0  0  0  0
  123.8204  122.3433   86.4893 C   0  0  0  0  0  0  0  0  0  0  0  0
  124.6743  122.7562   85.4431 N   0  0  0  0  0  0  0  0  0  0  0  0
  125.0096  122.0842   84.2685 C   0  0  0  0  0  0  0  0  0  0  0  0
  124.2036  121.4354   83.6000 O   0  0  0  0  0  0  0  0  0  0  0  0
  126.5034  122.2282   83.8743 C   0  0  0  0  0  0  0  0  0  0  0  0
  127.2613  120.6399   83.6116 Cl  0  0  0  0  0  0  0  0  0  0  0  0
  126.6062  123.1932   82.3718 Cl  0  0  0  0  0  0  0  0  0  0  0  0
  127.3601  123.0871   85.1886 Cl  0  0  0  0  0  0  0  0  0  0  0  0
  122.4474  122.6233   86.3296 C   0  0  0  0  0  0  0  0  0  0  0  0
  122.1129  123.2705   85.1609 O   0  0  0  0  0  0  0  0  0  0  0  0
  120.9018  124.0186   85.1638 C   0  0  0  0  0  0  0  0  0  0  0  0
  121.5421  122.2441   87.3245 C   0  0  0  0  0  0  0  0  0  0  0  0
  120.8993  121.3852   91.4322 H   0  0  0  0  0  0  0  0  0  0  0  0
  121.1411  119.7416   90.7491 H   0  0  0  0  0  0  0  0  0  0  0  0
  122.4948  120.9222   90.7491 H   0  0  0  0  0  0  0  0  0  0  0  0
  123.6966  120.7991   89.5371 H   0  0  0  0  0  0  0  0  0  0  0  0
  125.3264  121.4684   87.7722 H   0  0  0  0  0  0  0  0  0  0  0  0
  125.1097  123.6817   85.5647 H   0  0  0  0  0  0  0  0  0  0  0  0
  120.5917  124.2102   86.2016 H   0  0  0  0  0  0  0  0  0  0  0  0
  121.0610  124.9760   84.6459 H   0  0  0  0  0  0  0  0  0  0  0  0
  120.1170  123.4477   84.6459 H   0  0  0  0  0  0  0  0  0  0  0  0
  120.4714  122.4630   87.1991 H   0  0  0  0  0  0  0  0  0  0  0  0
  1  2  1  0
  2  3  1  0
  3  4  2  0
  4  5  1  0
  5  6  2  0
  6  7  1  0
  7  8  1  0
  8  9  2  0
  8 10  1  0
 10 11  1  0
 10 12  1  0
 10 13  1  0
  6 14  1  0
 14 15  1  0
 15 16  1  0
 14 17  2  0
 17  3  1  0
  1 18  1  0
  1 19  1  0
  1 20  1  0
  4 21  1  0
  5 22  1  0
  7 23  1  0
 16 24  1  0
 16 25  1  0
 16 26  1  0
 17 27  1  0
M  END
>  <loss>  (17) 
0.7629824280738831

>  <score>  (17) 
2.6757194995880127

$$$$
REHLJAXZKIIABG-UHFFFAOYSA-N
     RDKit          3D

 27 27  0  0  0  0  0  0  0  0999 V2000
  121.4053  120.7999   90.6431 C   0  0  0  0  0  0  0  0  0  0  0  0
  120.9961  121.2686   89.3637 O   0  0  0  0  0  0  0  0  0  0  0  0
  121.9866  121.5851   88.4745 C   0  0  0  0  0  0  0  0  0  0  0  0
  123.3443  121.3136   88.6314 C   0  0  0  0  0  0  0  0  0  0  0  0
  124.2602  121.6918   87.6425 C   0  0  0  0  0  0  0  0  0  0  0  0
  123.8244  122.3443   86.4897 C   0  0  0  0  0  0  0  0  0  0  0  0
  124.6794  122.7595   85.4454 N   0  0  0  0  0  0  0  0  0  0  0  0
  125.0081  122.0944   84.2650 C   0  0  0  0  0  0  0  0  0  0  0  0
  124.1963  121.4579   83.5919 O   0  0  0  0  0  0  0  0  0  0  0  0
  126.5028  122.2292   83.8707 C   0  0  0  0  0  0  0  0  0  0  0  0
  127.2550  120.6356   83.6236 Cl  0  0  0  0  0  0  0  0  0  0  0  0
  126.6105  123.1797   82.3594 Cl  0  0  0  0  0  0  0  0  0  0  0  0
  127.3617  123.0971   85.1777 Cl  0  0  0  0  0  0  0  0  0  0  0  0
  122.4511  122.6208   86.3273 C   0  0  0  0  0  0  0  0  0  0  0  0
  122.1173  123.2674   85.1580 O   0  0  0  0  0  0  0  0  0  0  0  0
  120.9096  124.0209   85.1617 C   0  0  0  0  0  0  0  0  0  0  0  0
  121.5446  122.2393   87.3203 C   0  0  0  0  0  0  0  0  0  0  0  0
  120.8973  121.3817   91.4264 H   0  0  0  0  0  0  0  0  0  0  0  0
  121.1409  119.7372   90.7461 H   0  0  0  0  0  0  0  0  0  0  0  0
  122.4940  120.9186   90.7461 H   0  0  0  0  0  0  0  0  0  0  0  0
  123.6982  120.7993   89.5370 H   0  0  0  0  0  0  0  0  0  0  0  0
  125.3300  121.4730   87.7756 H   0  0  0  0  0  0  0  0  0  0  0  0
  125.1213  123.6810   85.5734 H   0  0  0  0  0  0  0  0  0  0  0  0
  120.6008  124.2136   86.1997 H   0  0  0  0  0  0  0  0  0  0  0  0
  121.0728  124.9777   84.6441 H   0  0  0  0  0  0  0  0  0  0  0  0
  120.1220  123.4537   84.6441 H   0  0  0  0  0  0  0  0  0  0  0  0
  120.4737  122.4555   87.1927 H   0  0  0  0  0  0  0  0  0  0  0  0
  1  2  1  0
  2  3  1  0
  3  4  2  0
  4  5  1  0
  5  6  2  0
  6  7  1  0
  7  8  1  0
  8  9  2  0
  8 10  1  0
 10 11  1  0
 10 12  1  0
 10 13  1  0
  6 14  1  0
 14 15  1  0
 15 16  1  0
 14 17  2  0
 17  3  1  0
  1 18  1  0
  1 19  1  0
  1 20  1  0
  4 21  1  0
  5 22  1  0
  7 23  1  0
 16 24  1  0
 16 25  1  0
 16 26  1  0
 17 27  1  0
M  END
>  <loss>  (18) 
0.7629926800727844

>  <score>  (18) 
2.674917697906494

$$$$
REHLJAXZKIIABG-UHFFFAOYSA-N
     RDKit          3D

 27 27  0  0  0  0  0  0  0  0999 V2000
  121.4047  120.8251   90.6456 C   0  0  0  0  0  0  0  0  0  0  0  0
  120.9949  121.2666   89.3568 O   0  0  0  0  0  0  0  0  0  0  0  0
  121.9850  121.5836   88.4672 C   0  0  0  0  0  0  0  0  0  0  0  0
  123.3424  121.3102   88.6222 C   0  0  0  0  0  0  0  0  0  0  0  0
  124.2578  121.6891   87.6331 C   0  0  0  0  0  0  0  0  0  0  0  0
  123.8217  122.3442   86.4820 C   0  0  0  0  0  0  0  0  0  0  0  0
  124.6762  122.7603   85.4376 N   0  0  0  0  0  0  0  0  0  0  0  0
  125.0089  122.0937   84.2592 C   0  0  0  0  0  0  0  0  0  0  0  0
  124.2009  121.4502   83.5880 O   0  0  0  0  0  0  0  0  0  0  0  0
  126.5035  122.2333   83.8664 C   0  0  0  0  0  0  0  0  0  0  0  0
  127.3609  123.0856   85.1844 Cl  0  0  0  0  0  0  0  0  0  0  0  0
  126.6127  123.2019   82.3665 Cl  0  0  0  0  0  0  0  0  0  0  0  0
  127.2557  120.6429   83.6001 Cl  0  0  0  0  0  0  0  0  0  0  0  0
  122.4485  122.6227   86.3215 C   0  0  0  0  0  0  0  0  0  0  0  0
  122.1144  123.2719   85.1537 O   0  0  0  0  0  0  0  0  0  0  0  0
  120.9244  124.0528   85.1696 C   0  0  0  0  0  0  0  0  0  0  0  0
  121.5426  122.2404   87.3146 C   0  0  0  0  0  0  0  0  0  0  0  0
  120.8712  121.3999   91.4169 H   0  0  0  0  0  0  0  0  0  0  0  0
  121.1717  119.7560   90.7582 H   0  0  0  0  0  0  0  0  0  0  0  0
  122.4882  120.9781   90.7582 H   0  0  0  0  0  0  0  0  0  0  0  0
  123.6966  120.7938   89.5266 H   0  0  0  0  0  0  0  0  0  0  0  0
  125.3274  121.4687   87.7648 H   0  0  0  0  0  0  0  0  0  0  0  0
  125.1142  123.6839   85.5639 H   0  0  0  0  0  0  0  0  0  0  0  0
  120.6275  124.2476   86.2108 H   0  0  0  0  0  0  0  0  0  0  0  0
  121.1058  125.0081   84.6552 H   0  0  0  0  0  0  0  0  0  0  0  0
  120.1202  123.5063   84.6552 H   0  0  0  0  0  0  0  0  0  0  0  0
  120.4718  122.4581   87.1885 H   0  0  0  0  0  0  0  0  0  0  0  0
  1  2  1  0
  2  3  1  0
  3  4  2  0
  4  5  1  0
  5  6  2  0
  6  7  1  0
  7  8  1  0
  8  9  2  0
  8 10  1  0
 10 11  1  0
 10 12  1  0
 10 13  1  0
  6 14  1  0
 14 15  1  0
 15 16  1  0
 14 17  2  0
 17  3  1  0
  1 18  1  0
  1 19  1  0
  1 20  1  0
  4 21  1  0
  5 22  1  0
  7 23  1  0
 16 24  1  0
 16 25  1  0
 16 26  1  0
 17 27  1  0
M  END
>  <loss>  (19) 
0.7629573345184326

>  <score>  (19) 
2.6744136810302734

$$$$
REHLJAXZKIIABG-UHFFFAOYSA-N
     RDKit          3D

 27 27  0  0  0  0  0  0  0  0999 V2000
  121.3966  120.9108   90.6822 C   0  0  0  0  0  0  0  0  0  0  0  0
  120.9885  121.2306   89.3574 O   0  0  0  0  0  0  0  0  0  0  0  0
  121.9749  121.5601   88.4682 C   0  0  0  0  0  0  0  0  0  0  0  0
  123.3363  121.3090   88.6267 C   0  0  0  0  0  0  0  0  0  0  0  0
  124.2473  121.6988   87.6377 C   0  0  0  0  0  0  0  0  0  0  0  0
  123.8028  122.3426   86.4834 C   0  0  0  0  0  0  0  0  0  0  0  0
  124.6523  122.7683   85.4389 N   0  0  0  0  0  0  0  0  0  0  0  0
  125.0011  122.1009   84.2656 C   0  0  0  0  0  0  0  0  0  0  0  0
  124.2042  121.4502   83.5882 O   0  0  0  0  0  0  0  0  0  0  0  0
  126.4973  122.2544   83.8841 C   0  0  0  0  0  0  0  0  0  0  0  0
  126.6094  123.2712   82.4170 Cl  0  0  0  0  0  0  0  0  0  0  0  0
  127.3506  123.0642   85.2315 Cl  0  0  0  0  0  0  0  0  0  0  0  0
  127.2522  120.6740   83.5697 Cl  0  0  0  0  0  0  0  0  0  0  0  0
  122.4256  122.5984   86.3194 C   0  0  0  0  0  0  0  0  0  0  0  0
  122.0831  123.2377   85.1486 O   0  0  0  0  0  0  0  0  0  0  0  0
  120.9778  124.1328   85.2039 C   0  0  0  0  0  0  0  0  0  0  0  0
  121.5242  122.2053   87.3124 C   0  0  0  0  0  0  0  0  0  0  0  0
  120.7416  121.4241   91.4016 H   0  0  0  0  0  0  0  0  0  0  0  0
  121.3279  119.8236   90.8347 H   0  0  0  0  0  0  0  0  0  0  0  0
  122.4359  121.2375   90.8347 H   0  0  0  0  0  0  0  0  0  0  0  0
  123.6972  120.8018   89.5336 H   0  0  0  0  0  0  0  0  0  0  0  0
  125.3201  121.4962   87.7720 H   0  0  0  0  0  0  0  0  0  0  0  0
  125.0723  123.7009   85.5606 H   0  0  0  0  0  0  0  0  0  0  0  0
  120.7244  124.3381   86.2545 H   0  0  0  0  0  0  0  0  0  0  0  0
  121.2427  125.0741   84.7000 H   0  0  0  0  0  0  0  0  0  0  0  0
  120.1121  123.6782   84.7000 H   0  0  0  0  0  0  0  0  0  0  0  0
  120.4502  122.4053   87.1836 H   0  0  0  0  0  0  0  0  0  0  0  0
  1  2  1  0
  2  3  1  0
  3  4  2  0
  4  5  1  0
  5  6  2  0
  6  7  1  0
  7  8  1  0
  8  9  2  0
  8 10  1  0
 10 11  1  0
 10 12  1  0
 10 13  1  0
  6 14  1  0
 14 15  1  0
 15 16  1  0
 14 17  2  0
 17  3  1  0
  1 18  1  0
  1 19  1  0
  1 20  1  0
  4 21  1  0
  5 22  1  0
  7 23  1  0
 16 24  1  0
 16 25  1  0
 16 26  1  0
 17 27  1  0
M  END
>  <loss>  (20) 
0.7626001238822937

>  <score>  (20) 
2.664919376373291

$$$$
REHLJAXZKIIABG-UHFFFAOYSA-N
     RDKit          3D

 27 27  0  0  0  0  0  0  0  0999 V2000
  121.4224  120.8266   90.6446 C   0  0  0  0  0  0  0  0  0  0  0  0
  120.9970  121.2710   89.3618 O   0  0  0  0  0  0  0  0  0  0  0  0
  121.9761  121.5916   88.4615 C   0  0  0  0  0  0  0  0  0  0  0  0
  123.3394  121.3470   88.6138 C   0  0  0  0  0  0  0  0  0  0  0  0
  124.2422  121.7265   87.6133 C   0  0  0  0  0  0  0  0  0  0  0  0
  123.7876  122.3532   86.4536 C   0  0  0  0  0  0  0  0  0  0  0  0
  124.6284  122.7677   85.3976 N   0  0  0  0  0  0  0  0  0  0  0  0
  124.9820  122.0803   84.2375 C   0  0  0  0  0  0  0  0  0  0  0  0
  124.1813  121.4450   83.5501 O   0  0  0  0  0  0  0  0  0  0  0  0
  126.4895  122.1881   83.8856 C   0  0  0  0  0  0  0  0  0  0  0  0
  127.3699  120.7111   84.3430 Cl  0  0  0  0  0  0  0  0  0  0  0  0
  126.6463  122.4538   82.1238 Cl  0  0  0  0  0  0  0  0  0  0  0  0
  127.1804  123.5881   84.7585 Cl  0  0  0  0  0  0  0  0  0  0  0  0
  122.4084  122.6025   86.2959 C   0  0  0  0  0  0  0  0  0  0  0  0
  122.0558  123.2249   85.1191 O   0  0  0  0  0  0  0  0  0  0  0  0
  120.9979  124.1750   85.1857 C   0  0  0  0  0  0  0  0  0  0  0  0
  121.5152  122.2199   87.3003 C   0  0  0  0  0  0  0  0  0  0  0  0
  120.8854  121.3875   91.4237 H   0  0  0  0  0  0  0  0  0  0  0  0
  121.2067  119.7532   90.7509 H   0  0  0  0  0  0  0  0  0  0  0  0
  122.5042  120.9955   90.7509 H   0  0  0  0  0  0  0  0  0  0  0  0
  123.7082  120.8532   89.5249 H   0  0  0  0  0  0  0  0  0  0  0  0
  125.3165  121.5290   87.7429 H   0  0  0  0  0  0  0  0  0  0  0  0
  125.0370  123.7078   85.4985 H   0  0  0  0  0  0  0  0  0  0  0  0
  120.7615  124.3873   86.2388 H   0  0  0  0  0  0  0  0  0  0  0  0
  121.3075  125.1042   84.6849 H   0  0  0  0  0  0  0  0  0  0  0  0
  120.1072  123.7677   84.6849 H   0  0  0  0  0  0  0  0  0  0  0  0
  120.4397  122.4148   87.1764 H   0  0  0  0  0  0  0  0  0  0  0  0
  1  2  1  0
  2  3  1  0
  3  4  2  0
  4  5  1  0
  5  6  2  0
  6  7  1  0
  7  8  1  0
  8  9  2  0
  8 10  1  0
 10 11  1  0
 10 12  1  0
 10 13  1  0
  6 14  1  0
 14 15  1  0
 15 16  1  0
 14 17  2  0
 17  3  1  0
  1 18  1  0
  1 19  1  0
  1 20  1  0
  4 21  1  0
  5 22  1  0
  7 23  1  0
 16 24  1  0
 16 25  1  0
 16 26  1  0
 17 27  1  0
M  END
>  <loss>  (21) 
0.7716572284698486

>  <score>  (21) 
2.7083098888397217

$$$$
REHLJAXZKIIABG-UHFFFAOYSA-N
     RDKit          3D

 27 27  0  0  0  0  0  0  0  0999 V2000
  121.4238  120.8270   90.6725 C   0  0  0  0  0  0  0  0  0  0  0  0
  121.0075  121.2607   89.3831 O   0  0  0  0  0  0  0  0  0  0  0  0
  121.9930  121.5808   88.4896 C   0  0  0  0  0  0  0  0  0  0  0  0
  123.3527  121.3177   88.6423 C   0  0  0  0  0  0  0  0  0  0  0  0
  124.2629  121.6988   87.6492 C   0  0  0  0  0  0  0  0  0  0  0  0
  123.8192  122.3458   86.4964 C   0  0  0  0  0  0  0  0  0  0  0  0
  124.6680  122.7634   85.4480 N   0  0  0  0  0  0  0  0  0  0  0  0
  125.0016  122.0946   84.2712 C   0  0  0  0  0  0  0  0  0  0  0  0
  124.1931  121.4538   83.5981 O   0  0  0  0  0  0  0  0  0  0  0  0
  126.4980  122.2279   83.8828 C   0  0  0  0  0  0  0  0  0  0  0  0
  127.3573  123.0661   85.2085 Cl  0  0  0  0  0  0  0  0  0  0  0  0
  126.6166  123.2058   82.3897 Cl  0  0  0  0  0  0  0  0  0  0  0  0
  127.2413  120.6348   83.6075 Cl  0  0  0  0  0  0  0  0  0  0  0  0
  122.4437  122.6139   86.3382 C   0  0  0  0  0  0  0  0  0  0  0  0
  122.1019  123.2556   85.1686 O   0  0  0  0  0  0  0  0  0  0  0  0
  120.9039  124.0242   85.1827 C   0  0  0  0  0  0  0  0  0  0  0  0
  121.5430  122.2295   87.3353 C   0  0  0  0  0  0  0  0  0  0  0  0
  120.8801  121.3933   91.4430 H   0  0  0  0  0  0  0  0  0  0  0  0
  121.2085  119.7542   90.7857 H   0  0  0  0  0  0  0  0  0  0  0  0
  122.5045  120.9981   90.7857 H   0  0  0  0  0  0  0  0  0  0  0  0
  123.7130  120.8078   89.5480 H   0  0  0  0  0  0  0  0  0  0  0  0
  125.3344  121.4866   87.7791 H   0  0  0  0  0  0  0  0  0  0  0  0
  125.1005  123.6903   85.5697 H   0  0  0  0  0  0  0  0  0  0  0  0
  120.6040  124.2166   86.2234 H   0  0  0  0  0  0  0  0  0  0  0  0
  121.0759  124.9809   84.6679 H   0  0  0  0  0  0  0  0  0  0  0  0
  120.1060  123.4690   84.6679 H   0  0  0  0  0  0  0  0  0  0  0  0
  120.4704  122.4390   87.2110 H   0  0  0  0  0  0  0  0  0  0  0  0
  1  2  1  0
  2  3  1  0
  3  4  2  0
  4  5  1  0
  5  6  2  0
  6  7  1  0
  7  8  1  0
  8  9  2  0
  8 10  1  0
 10 11  1  0
 10 12  1  0
 10 13  1  0
  6 14  1  0
 14 15  1  0
 15 16  1  0
 14 17  2  0
 17  3  1  0
  1 18  1  0
  1 19  1  0
  1 20  1  0
  4 21  1  0
  5 22  1  0
  7 23  1  0
 16 24  1  0
 16 25  1  0
 16 26  1  0
 17 27  1  0
M  END
>  <loss>  (22) 
0.762982964515686

>  <score>  (22) 
2.655292272567749

$$$$
REHLJAXZKIIABG-UHFFFAOYSA-N
     RDKit          3D

 27 27  0  0  0  0  0  0  0  0999 V2000
  121.4068  120.8081   90.6425 C   0  0  0  0  0  0  0  0  0  0  0  0
  120.9953  121.2837   89.3665 O   0  0  0  0  0  0  0  0  0  0  0  0
  121.9841  121.5957   88.4737 C   0  0  0  0  0  0  0  0  0  0  0  0
  123.3422  121.3257   88.6297 C   0  0  0  0  0  0  0  0  0  0  0  0
  124.2561  121.6986   87.6370 C   0  0  0  0  0  0  0  0  0  0  0  0
  123.8180  122.3444   86.4814 C   0  0  0  0  0  0  0  0  0  0  0  0
  124.6709  122.7539   85.4331 N   0  0  0  0  0  0  0  0  0  0  0  0
  125.0088  122.0762   84.2626 C   0  0  0  0  0  0  0  0  0  0  0  0
  124.2025  121.4312   83.5909 O   0  0  0  0  0  0  0  0  0  0  0  0
  126.5040  122.2161   83.8722 C   0  0  0  0  0  0  0  0  0  0  0  0
  127.3639  123.0727   85.1865 Cl  0  0  0  0  0  0  0  0  0  0  0  0
  127.2581  120.6256   83.6116 Cl  0  0  0  0  0  0  0  0  0  0  0  0
  126.6089  123.1809   82.3702 Cl  0  0  0  0  0  0  0  0  0  0  0  0
  122.4442  122.6194   86.3198 C   0  0  0  0  0  0  0  0  0  0  0  0
  122.1080  123.2591   85.1475 O   0  0  0  0  0  0  0  0  0  0  0  0
  120.9465  124.0815   85.1735 C   0  0  0  0  0  0  0  0  0  0  0  0
  121.5398  122.2431   87.3165 C   0  0  0  0  0  0  0  0  0  0  0  0
  120.9043  121.3890   91.4299 H   0  0  0  0  0  0  0  0  0  0  0  0
  121.1380  119.7461   90.7422 H   0  0  0  0  0  0  0  0  0  0  0  0
  122.4964  120.9214   90.7422 H   0  0  0  0  0  0  0  0  0  0  0  0
  123.6980  120.8167   89.5376 H   0  0  0  0  0  0  0  0  0  0  0  0
  125.3262  121.4810   87.7694 H   0  0  0  0  0  0  0  0  0  0  0  0
  125.1032  123.6816   85.5494 H   0  0  0  0  0  0  0  0  0  0  0  0
  120.6628  124.2824   86.2172 H   0  0  0  0  0  0  0  0  0  0  0  0
  121.1585  125.0319   84.6618 H   0  0  0  0  0  0  0  0  0  0  0  0
  120.1206  123.5658   84.6618 H   0  0  0  0  0  0  0  0  0  0  0  0
  120.4685  122.4580   87.1896 H   0  0  0  0  0  0  0  0  0  0  0  0
  1  2  1  0
  2  3  1  0
  3  4  2  0
  4  5  1  0
  5  6  2  0
  6  7  1  0
  7  8  1  0
  8  9  2  0
  8 10  1  0
 10 11  1  0
 10 12  1  0
 10 13  1  0
  6 14  1  0
 14 15  1  0
 15 16  1  0
 14 17  2  0
 17  3  1  0
  1 18  1  0
  1 19  1  0
  1 20  1  0
  4 21  1  0
  5 22  1  0
  7 23  1  0
 16 24  1  0
 16 25  1  0
 16 26  1  0
 17 27  1  0
M  END
>  <loss>  (23) 
0.7626662254333496

>  <score>  (23) 
2.650078535079956

$$$$
REHLJAXZKIIABG-UHFFFAOYSA-N
     RDKit          3D

 27 27  0  0  0  0  0  0  0  0999 V2000
  121.4150  120.9219   90.6698 C   0  0  0  0  0  0  0  0  0  0  0  0
  121.0039  121.1977   89.3361 O   0  0  0  0  0  0  0  0  0  0  0  0
  121.9833  121.5431   88.4452 C   0  0  0  0  0  0  0  0  0  0  0  0
  123.3489  121.3148   88.6017 C   0  0  0  0  0  0  0  0  0  0  0  0
  124.2517  121.7193   87.6111 C   0  0  0  0  0  0  0  0  0  0  0  0
  123.7948  122.3549   86.4571 C   0  0  0  0  0  0  0  0  0  0  0  0
  124.6355  122.7942   85.4111 N   0  0  0  0  0  0  0  0  0  0  0  0
  125.0371  122.1114   84.2639 C   0  0  0  0  0  0  0  0  0  0  0  0
  124.2864  121.3983   83.5966 O   0  0  0  0  0  0  0  0  0  0  0  0
  126.5284  122.3338   83.8977 C   0  0  0  0  0  0  0  0  0  0  0  0
  127.2475  120.7569   83.4560 Cl  0  0  0  0  0  0  0  0  0  0  0  0
  126.6134  123.4370   82.4922 Cl  0  0  0  0  0  0  0  0  0  0  0  0
  127.4329  123.0380   85.2587 Cl  0  0  0  0  0  0  0  0  0  0  0  0
  122.4133  122.5877   86.2952 C   0  0  0  0  0  0  0  0  0  0  0  0
  122.0584  123.2206   85.1246 O   0  0  0  0  0  0  0  0  0  0  0  0
  120.9870  124.1549   85.1977 C   0  0  0  0  0  0  0  0  0  0  0  0
  121.5201  122.1802   87.2898 C   0  0  0  0  0  0  0  0  0  0  0  0
  120.7135  121.3925   91.3744 H   0  0  0  0  0  0  0  0  0  0  0  0
  121.4243  119.8341   90.8331 H   0  0  0  0  0  0  0  0  0  0  0  0
  122.4250  121.3258   90.8331 H   0  0  0  0  0  0  0  0  0  0  0  0
  123.7196  120.8142   89.5083 H   0  0  0  0  0  0  0  0  0  0  0  0
  125.3280  121.5345   87.7438 H   0  0  0  0  0  0  0  0  0  0  0  0
  125.0028  123.7515   85.5093 H   0  0  0  0  0  0  0  0  0  0  0  0
  120.7511  124.3606   86.2522 H   0  0  0  0  0  0  0  0  0  0  0  0
  121.2813  125.0900   84.6986 H   0  0  0  0  0  0  0  0  0  0  0  0
  120.1007  123.7362   84.6986 H   0  0  0  0  0  0  0  0  0  0  0  0
  120.4427  122.3622   87.1626 H   0  0  0  0  0  0  0  0  0  0  0  0
  1  2  1  0
  2  3  1  0
  3  4  2  0
  4  5  1  0
  5  6  2  0
  6  7  1  0
  7  8  1  0
  8  9  2  0
  8 10  1  0
 10 11  1  0
 10 12  1  0
 10 13  1  0
  6 14  1  0
 14 15  1  0
 15 16  1  0
 14 17  2  0
 17  3  1  0
  1 18  1  0
  1 19  1  0
  1 20  1  0
  4 21  1  0
  5 22  1  0
  7 23  1  0
 16 24  1  0
 16 25  1  0
 16 26  1  0
 17 27  1  0
M  END
>  <loss>  (24) 
0.759013831615448

>  <score>  (24) 
2.625761032104492

$$$$
REHLJAXZKIIABG-UHFFFAOYSA-N
     RDKit          3D

 27 27  0  0  0  0  0  0  0  0999 V2000
  121.4052  120.8043   90.6360 C   0  0  0  0  0  0  0  0  0  0  0  0
  120.9941  121.2809   89.3602 O   0  0  0  0  0  0  0  0  0  0  0  0
  121.9832  121.5950   88.4685 C   0  0  0  0  0  0  0  0  0  0  0  0
  123.3416  121.3273   88.6257 C   0  0  0  0  0  0  0  0  0  0  0  0
  124.2559  121.7023   87.6340 C   0  0  0  0  0  0  0  0  0  0  0  0
  123.8177  122.3478   86.4782 C   0  0  0  0  0  0  0  0  0  0  0  0
  124.6709  122.7592   85.4310 N   0  0  0  0  0  0  0  0  0  0  0  0
  125.0067  122.0849   84.2579 C   0  0  0  0  0  0  0  0  0  0  0  0
  124.1987  121.4440   83.5843 O   0  0  0  0  0  0  0  0  0  0  0  0
  126.5020  122.2231   83.8671 C   0  0  0  0  0  0  0  0  0  0  0  0
  127.3668  123.0624   85.1894 Cl  0  0  0  0  0  0  0  0  0  0  0  0
  127.2495  120.6324   83.5890 Cl  0  0  0  0  0  0  0  0  0  0  0  0
  126.6090  123.2031   82.3752 Cl  0  0  0  0  0  0  0  0  0  0  0  0
  122.4436  122.6204   86.3155 C   0  0  0  0  0  0  0  0  0  0  0  0
  122.1074  123.2600   85.1430 O   0  0  0  0  0  0  0  0  0  0  0  0
  120.9421  124.0770   85.1672 C   0  0  0  0  0  0  0  0  0  0  0  0
  121.5388  122.2420   87.3111 C   0  0  0  0  0  0  0  0  0  0  0  0
  120.9036  121.3858   91.4236 H   0  0  0  0  0  0  0  0  0  0  0  0
  121.1348  119.7427   90.7354 H   0  0  0  0  0  0  0  0  0  0  0  0
  122.4950  120.9160   90.7354 H   0  0  0  0  0  0  0  0  0  0  0  0
  123.6974  120.8186   89.5337 H   0  0  0  0  0  0  0  0  0  0  0  0
  125.3262  121.4864   87.7673 H   0  0  0  0  0  0  0  0  0  0  0  0
  125.1052  123.6855   85.5503 H   0  0  0  0  0  0  0  0  0  0  0  0
  120.6563  124.2774   86.2104 H   0  0  0  0  0  0  0  0  0  0  0  0
  121.1503  125.0280   84.6550 H   0  0  0  0  0  0  0  0  0  0  0  0
  120.1191  123.5571   84.6550 H   0  0  0  0  0  0  0  0  0  0  0  0
  120.4673  122.4551   87.1833 H   0  0  0  0  0  0  0  0  0  0  0  0
  1  2  1  0
  2  3  1  0
  3  4  2  0
  4  5  1  0
  5  6  2  0
  6  7  1  0
  7  8  1  0
  8  9  2  0
  8 10  1  0
 10 11  1  0
 10 12  1  0
 10 13  1  0
  6 14  1  0
 14 15  1  0
 15 16  1  0
 14 17  2  0
 17  3  1  0
  1 18  1  0
  1 19  1  0
  1 20  1  0
  4 21  1  0
  5 22  1  0
  7 23  1  0
 16 24  1  0
 16 25  1  0
 16 26  1  0
 17 27  1  0
M  END
>  <loss>  (25) 
0.7626566886901855

>  <score>  (25) 
2.6385390758514404

$$$$
