RNQZJZGVFTZVDW-UHFFFAOYSA-N
     RDKit          3D

 20 20  0  0  0  0  0  0  0  0999 V2000
  126.7532  120.5822   89.0995 N   0  0  0  0  0  0  0  0  0  0  0  0
  125.8583  121.0453   88.5236 C   0  0  0  0  0  0  0  0  0  0  0  0
  124.7745  121.6199   87.7823 C   0  0  0  0  0  0  0  0  0  0  0  0
  124.9808  121.9736   86.4442 C   0  0  0  0  0  0  0  0  0  0  0  0
  123.9462  122.5379   85.6864 C   0  0  0  0  0  0  0  0  0  0  0  0
  122.6902  122.7581   86.2527 C   0  0  0  0  0  0  0  0  0  0  0  0
  121.5946  123.3193   85.5637 N   0  0  0  0  0  0  0  0  0  0  0  0
  120.3512  122.7303   85.2957 C   0  0  0  0  0  0  0  0  0  0  0  0
  119.8716  121.8186   85.9700 O   0  0  0  0  0  0  0  0  0  0  0  0
  119.6078  123.3579   84.0840 C   0  0  0  0  0  0  0  0  0  0  0  0
  119.3594  125.1025   84.3993 Cl  0  0  0  0  0  0  0  0  0  0  0  0
  120.5299  123.1529   82.5803 Cl  0  0  0  0  0  0  0  0  0  0  0  0
  118.0179  122.5555   83.9436 Cl  0  0  0  0  0  0  0  0  0  0  0  0
  122.4850  122.4028   87.5921 C   0  0  0  0  0  0  0  0  0  0  0  0
  123.5185  121.8381   88.3524 C   0  0  0  0  0  0  0  0  0  0  0  0
  123.1736  121.4317   89.9969 Cl  0  0  0  0  0  0  0  0  0  0  0  0
  125.9653  121.8070   85.9826 H   0  0  0  0  0  0  0  0  0  0  0  0
  124.1258  122.8097   84.6358 H   0  0  0  0  0  0  0  0  0  0  0  0
  121.7242  124.2797   85.2148 H   0  0  0  0  0  0  0  0  0  0  0  0
  121.5002  122.5690   88.0531 H   0  0  0  0  0  0  0  0  0  0  0  0
  1  2  3  0
  2  3  1  0
  3  4  2  0
  4  5  1  0
  5  6  2  0
  6  7  1  0
  7  8  1  0
  8  9  2  0
  8 10  1  0
 10 11  1  0
 10 12  1  0
 10 13  1  0
  6 14  1  0
 14 15  2  0
 15 16  1  0
 15  3  1  0
  4 17  1  0
  5 18  1  0
  7 19  1  0
 14 20  1  0
M  END
>  <loss>  (1) 
0.5600501894950867

>  <score>  (1) 
3.707641839981079

$$$$
RNQZJZGVFTZVDW-UHFFFAOYSA-N
     RDKit          3D

 20 20  0  0  0  0  0  0  0  0999 V2000
  126.9861  121.3108   89.2431 N   0  0  0  0  0  0  0  0  0  0  0  0
  126.0222  121.4715   88.6169 C   0  0  0  0  0  0  0  0  0  0  0  0
  124.8617  121.6890   87.8040 C   0  0  0  0  0  0  0  0  0  0  0  0
  125.0271  122.2227   86.5209 C   0  0  0  0  0  0  0  0  0  0  0  0
  123.9170  122.4482   85.7002 C   0  0  0  0  0  0  0  0  0  0  0  0
  122.6239  122.1458   86.1450 C   0  0  0  0  0  0  0  0  0  0  0  0
  121.5661  122.4060   85.2488 N   0  0  0  0  0  0  0  0  0  0  0  0
  120.3795  123.1099   85.4955 C   0  0  0  0  0  0  0  0  0  0  0  0
  119.9871  123.4042   86.6244 O   0  0  0  0  0  0  0  0  0  0  0  0
  119.5804  123.4617   84.2103 C   0  0  0  0  0  0  0  0  0  0  0  0
  120.6829  124.2621   83.0488 Cl  0  0  0  0  0  0  0  0  0  0  0  0
  118.9895  121.9334   83.4973 Cl  0  0  0  0  0  0  0  0  0  0  0  0
  118.2132  124.5362   84.5681 Cl  0  0  0  0  0  0  0  0  0  0  0  0
  122.4615  121.6126   87.4255 C   0  0  0  0  0  0  0  0  0  0  0  0
  123.5729  121.3852   88.2512 C   0  0  0  0  0  0  0  0  0  0  0  0
  123.2869  120.7226   89.8230 Cl  0  0  0  0  0  0  0  0  0  0  0  0
  126.0357  122.4664   86.1557 H   0  0  0  0  0  0  0  0  0  0  0  0
  124.0614  122.8678   84.6937 H   0  0  0  0  0  0  0  0  0  0  0  0
  121.6797  122.0326   84.2956 H   0  0  0  0  0  0  0  0  0  0  0  0
  121.4528  121.3686   87.7902 H   0  0  0  0  0  0  0  0  0  0  0  0
  1  2  3  0
  2  3  1  0
  3  4  2  0
  4  5  1  0
  5  6  2  0
  6  7  1  0
  7  8  1  0
  8  9  2  0
  8 10  1  0
 10 11  1  0
 10 12  1  0
 10 13  1  0
  6 14  1  0
 14 15  2  0
 15 16  1  0
 15  3  1  0
  4 17  1  0
  5 18  1  0
  7 19  1  0
 14 20  1  0
M  END
>  <loss>  (2) 
0.5387542843818665

>  <score>  (2) 
3.5579159259796143

$$$$
RNQZJZGVFTZVDW-UHFFFAOYSA-N
     RDKit          3D

 20 20  0  0  0  0  0  0  0  0999 V2000
  126.8780  120.9921   89.2777 N   0  0  0  0  0  0  0  0  0  0  0  0
  125.9562  121.2848   88.6362 C   0  0  0  0  0  0  0  0  0  0  0  0
  124.8505  121.6600   87.8044 C   0  0  0  0  0  0  0  0  0  0  0  0
  125.1086  122.1438   86.5168 C   0  0  0  0  0  0  0  0  0  0  0  0
  124.0541  122.5193   85.6779 C   0  0  0  0  0  0  0  0  0  0  0  0
  122.7253  122.4192   86.1086 C   0  0  0  0  0  0  0  0  0  0  0  0
  121.7286  122.8203   85.1946 N   0  0  0  0  0  0  0  0  0  0  0  0
  120.3572  122.9869   85.4314 C   0  0  0  0  0  0  0  0  0  0  0  0
  119.8286  122.7913   86.5256 O   0  0  0  0  0  0  0  0  0  0  0  0
  119.5526  123.4202   84.1748 C   0  0  0  0  0  0  0  0  0  0  0  0
  117.9713  124.0964   84.6147 Cl  0  0  0  0  0  0  0  0  0  0  0  0
  119.3357  121.9810   83.1374 Cl  0  0  0  0  0  0  0  0  0  0  0  0
  120.5032  124.6470   83.2829 Cl  0  0  0  0  0  0  0  0  0  0  0  0
  122.4703  121.9356   87.3938 C   0  0  0  0  0  0  0  0  0  0  0  0
  123.5258  121.5581   88.2377 C   0  0  0  0  0  0  0  0  0  0  0  0
  123.1259  120.9694   89.8141 Cl  0  0  0  0  0  0  0  0  0  0  0  0
  126.1465  122.2292   86.1624 H   0  0  0  0  0  0  0  0  0  0  0  0
  124.2712  122.8977   84.6680 H   0  0  0  0  0  0  0  0  0  0  0  0
  122.0480  123.0148   84.2348 H   0  0  0  0  0  0  0  0  0  0  0  0
  121.4323  121.8500   87.7477 H   0  0  0  0  0  0  0  0  0  0  0  0
  1  2  3  0
  2  3  1  0
  3  4  2  0
  4  5  1  0
  5  6  2  0
  6  7  1  0
  7  8  1  0
  8  9  2  0
  8 10  1  0
 10 11  1  0
 10 12  1  0
 10 13  1  0
  6 14  1  0
 14 15  2  0
 15 16  1  0
 15  3  1  0
  4 17  1  0
  5 18  1  0
  7 19  1  0
 14 20  1  0
M  END
>  <loss>  (3) 
0.5442817807197571

>  <score>  (3) 
3.5617942810058594

$$$$
RNQZJZGVFTZVDW-UHFFFAOYSA-N
     RDKit          3D

 20 20  0  0  0  0  0  0  0  0999 V2000
  126.9788  121.3046   89.2434 N   0  0  0  0  0  0  0  0  0  0  0  0
  126.0167  121.4694   88.6156 C   0  0  0  0  0  0  0  0  0  0  0  0
  124.8585  121.6917   87.8006 C   0  0  0  0  0  0  0  0  0  0  0  0
  125.0285  122.2252   86.5179 C   0  0  0  0  0  0  0  0  0  0  0  0
  123.9208  122.4552   85.6952 C   0  0  0  0  0  0  0  0  0  0  0  0
  122.6258  122.1576   86.1374 C   0  0  0  0  0  0  0  0  0  0  0  0
  121.5706  122.4226   85.2394 N   0  0  0  0  0  0  0  0  0  0  0  0
  120.3700  123.0997   85.4944 C   0  0  0  0  0  0  0  0  0  0  0  0
  119.9630  123.3570   86.6271 O   0  0  0  0  0  0  0  0  0  0  0  0
  119.5864  123.4890   84.2105 C   0  0  0  0  0  0  0  0  0  0  0  0
  119.0341  121.9833   83.4200 Cl  0  0  0  0  0  0  0  0  0  0  0  0
  118.1923  124.5222   84.5847 Cl  0  0  0  0  0  0  0  0  0  0  0  0
  120.7002  124.3538   83.1090 Cl  0  0  0  0  0  0  0  0  0  0  0  0
  122.4587  121.6251   87.4176 C   0  0  0  0  0  0  0  0  0  0  0  0
  123.5678  121.3932   88.2453 C   0  0  0  0  0  0  0  0  0  0  0  0
  123.2761  120.7317   89.8167 Cl  0  0  0  0  0  0  0  0  0  0  0  0
  126.0387  122.4648   86.1547 H   0  0  0  0  0  0  0  0  0  0  0  0
  124.0687  122.8748   84.6892 H   0  0  0  0  0  0  0  0  0  0  0  0
  121.6980  122.0757   84.2780 H   0  0  0  0  0  0  0  0  0  0  0  0
  121.4484  121.3853   87.7805 H   0  0  0  0  0  0  0  0  0  0  0  0
  1  2  3  0
  2  3  1  0
  3  4  2  0
  4  5  1  0
  5  6  2  0
  6  7  1  0
  7  8  1  0
  8  9  2  0
  8 10  1  0
 10 11  1  0
 10 12  1  0
 10 13  1  0
  6 14  1  0
 14 15  2  0
 15 16  1  0
 15  3  1  0
  4 17  1  0
  5 18  1  0
  7 19  1  0
 14 20  1  0
M  END
>  <loss>  (4) 
0.5389949679374695

>  <score>  (4) 
3.5149993896484375

$$$$
RNQZJZGVFTZVDW-UHFFFAOYSA-N
     RDKit          3D

 20 20  0  0  0  0  0  0  0  0999 V2000
  126.9700  121.3090   89.2914 N   0  0  0  0  0  0  0  0  0  0  0  0
  126.0152  121.4673   88.6509 C   0  0  0  0  0  0  0  0  0  0  0  0
  124.8665  121.6815   87.8206 C   0  0  0  0  0  0  0  0  0  0  0  0
  125.0504  122.2087   86.5372 C   0  0  0  0  0  0  0  0  0  0  0  0
  123.9522  122.4309   85.6998 C   0  0  0  0  0  0  0  0  0  0  0  0
  122.6528  122.1316   86.1278 C   0  0  0  0  0  0  0  0  0  0  0  0
  121.6079  122.3881   85.2155 N   0  0  0  0  0  0  0  0  0  0  0  0
  120.4064  123.0708   85.4491 C   0  0  0  0  0  0  0  0  0  0  0  0
  119.9674  123.3064   86.5748 O   0  0  0  0  0  0  0  0  0  0  0  0
  119.6550  123.4799   84.1521 C   0  0  0  0  0  0  0  0  0  0  0  0
  120.6258  124.7125   83.2899 Cl  0  0  0  0  0  0  0  0  0  0  0  0
  119.5082  122.0265   83.1229 Cl  0  0  0  0  0  0  0  0  0  0  0  0
  118.0456  124.1370   84.5123 Cl  0  0  0  0  0  0  0  0  0  0  0  0
  122.4718  121.6050   87.4086 C   0  0  0  0  0  0  0  0  0  0  0  0
  123.5713  121.3810   88.2510 C   0  0  0  0  0  0  0  0  0  0  0  0
  123.2625  120.7264   89.8219 Cl  0  0  0  0  0  0  0  0  0  0  0  0
  126.0643  122.4498   86.1852 H   0  0  0  0  0  0  0  0  0  0  0  0
  124.1112  122.8454   84.6934 H   0  0  0  0  0  0  0  0  0  0  0  0
  121.7449  122.0295   84.2597 H   0  0  0  0  0  0  0  0  0  0  0  0
  121.4578  121.3636   87.7602 H   0  0  0  0  0  0  0  0  0  0  0  0
  1  2  3  0
  2  3  1  0
  3  4  2  0
  4  5  1  0
  5  6  2  0
  6  7  1  0
  7  8  1  0
  8  9  2  0
  8 10  1  0
 10 11  1  0
 10 12  1  0
 10 13  1  0
  6 14  1  0
 14 15  2  0
 15 16  1  0
 15  3  1  0
  4 17  1  0
  5 18  1  0
  7 19  1  0
 14 20  1  0
M  END
>  <loss>  (5) 
0.536838173866272

>  <score>  (5) 
3.4948298931121826

$$$$
RNQZJZGVFTZVDW-UHFFFAOYSA-N
     RDKit          3D

 20 20  0  0  0  0  0  0  0  0999 V2000
  126.7347  120.6153   89.1571 N   0  0  0  0  0  0  0  0  0  0  0  0
  125.8497  121.0659   88.5564 C   0  0  0  0  0  0  0  0  0  0  0  0
  124.7792  121.6262   87.7854 C   0  0  0  0  0  0  0  0  0  0  0  0
  125.0265  122.0143   86.4639 C   0  0  0  0  0  0  0  0  0  0  0  0
  124.0061  122.5660   85.6781 C   0  0  0  0  0  0  0  0  0  0  0  0
  122.7236  122.7392   86.1995 C   0  0  0  0  0  0  0  0  0  0  0  0
  121.6397  123.2846   85.4800 N   0  0  0  0  0  0  0  0  0  0  0  0
  120.3541  122.7494   85.3203 C   0  0  0  0  0  0  0  0  0  0  0  0
  119.8352  121.9758   86.1254 O   0  0  0  0  0  0  0  0  0  0  0  0
  119.6201  123.2498   84.0454 C   0  0  0  0  0  0  0  0  0  0  0  0
  120.2972  124.8389   83.5752 Cl  0  0  0  0  0  0  0  0  0  0  0  0
  119.8040  122.1057   82.6999 Cl  0  0  0  0  0  0  0  0  0  0  0  0
  117.8917  123.4466   84.4522 Cl  0  0  0  0  0  0  0  0  0  0  0  0
  122.4774  122.3495   87.5223 C   0  0  0  0  0  0  0  0  0  0  0  0
  123.4966  121.7973   88.3105 C   0  0  0  0  0  0  0  0  0  0  0  0
  123.1006  121.3463   89.9317 Cl  0  0  0  0  0  0  0  0  0  0  0  0
  126.0323  121.8848   86.0376 H   0  0  0  0  0  0  0  0  0  0  0  0
  124.2180  122.8652   84.6410 H   0  0  0  0  0  0  0  0  0  0  0  0
  121.8144  124.1869   85.0150 H   0  0  0  0  0  0  0  0  0  0  0  0
  121.4714  122.4786   87.9480 H   0  0  0  0  0  0  0  0  0  0  0  0
  1  2  3  0
  2  3  1  0
  3  4  2  0
  4  5  1  0
  5  6  2  0
  6  7  1  0
  7  8  1  0
  8  9  2  0
  8 10  1  0
 10 11  1  0
 10 12  1  0
 10 13  1  0
  6 14  1  0
 14 15  2  0
 15 16  1  0
 15  3  1  0
  4 17  1  0
  5 18  1  0
  7 19  1  0
 14 20  1  0
M  END
>  <loss>  (6) 
0.5553866028785706

>  <score>  (6) 
3.5576021671295166

$$$$
RNQZJZGVFTZVDW-UHFFFAOYSA-N
     RDKit          3D

 20 20  0  0  0  0  0  0  0  0999 V2000
  126.9703  121.3161   89.2974 N   0  0  0  0  0  0  0  0  0  0  0  0
  126.0165  121.4741   88.6553 C   0  0  0  0  0  0  0  0  0  0  0  0
  124.8690  121.6876   87.8230 C   0  0  0  0  0  0  0  0  0  0  0  0
  125.0552  122.2119   86.5388 C   0  0  0  0  0  0  0  0  0  0  0  0
  123.9583  122.4333   85.6995 C   0  0  0  0  0  0  0  0  0  0  0  0
  122.6580  122.1363   86.1264 C   0  0  0  0  0  0  0  0  0  0  0  0
  121.6145  122.3920   85.2123 N   0  0  0  0  0  0  0  0  0  0  0  0
  120.4131  123.0760   85.4434 C   0  0  0  0  0  0  0  0  0  0  0  0
  119.9798  123.3261   86.5680 O   0  0  0  0  0  0  0  0  0  0  0  0
  119.6581  123.4724   84.1445 C   0  0  0  0  0  0  0  0  0  0  0  0
  117.9807  123.9439   84.4840 Cl  0  0  0  0  0  0  0  0  0  0  0  0
  119.6874  122.0670   83.0406 Cl  0  0  0  0  0  0  0  0  0  0  0  0
  120.5222  124.8387   83.3760 Cl  0  0  0  0  0  0  0  0  0  0  0  0
  122.4748  121.6127   87.4082 C   0  0  0  0  0  0  0  0  0  0  0  0
  123.5730  121.3894   88.2525 C   0  0  0  0  0  0  0  0  0  0  0  0
  123.2615  120.7387   89.8245 Cl  0  0  0  0  0  0  0  0  0  0  0  0
  126.0697  122.4512   86.1875 H   0  0  0  0  0  0  0  0  0  0  0  0
  124.1189  122.8456   84.6924 H   0  0  0  0  0  0  0  0  0  0  0  0
  121.7525  122.0317   84.2573 H   0  0  0  0  0  0  0  0  0  0  0  0
  121.4601  121.3732   87.7590 H   0  0  0  0  0  0  0  0  0  0  0  0
  1  2  3  0
  2  3  1  0
  3  4  2  0
  4  5  1  0
  5  6  2  0
  6  7  1  0
  7  8  1  0
  8  9  2  0
  8 10  1  0
 10 11  1  0
 10 12  1  0
 10 13  1  0
  6 14  1  0
 14 15  2  0
 15 16  1  0
 15  3  1  0
  4 17  1  0
  5 18  1  0
  7 19  1  0
 14 20  1  0
M  END
>  <loss>  (7) 
0.5385047197341919

>  <score>  (7) 
3.452235460281372

$$$$
RNQZJZGVFTZVDW-UHFFFAOYSA-N
     RDKit          3D

 20 20  0  0  0  0  0  0  0  0999 V2000
  126.9638  121.2648   89.2982 N   0  0  0  0  0  0  0  0  0  0  0  0
  126.0111  121.4380   88.6585 C   0  0  0  0  0  0  0  0  0  0  0  0
  124.8651  121.6703   87.8292 C   0  0  0  0  0  0  0  0  0  0  0  0
  125.0555  122.2030   86.5491 C   0  0  0  0  0  0  0  0  0  0  0  0
  123.9601  122.4427   85.7128 C   0  0  0  0  0  0  0  0  0  0  0  0
  122.6572  122.1557   86.1385 C   0  0  0  0  0  0  0  0  0  0  0  0
  121.6156  122.4299   85.2277 N   0  0  0  0  0  0  0  0  0  0  0  0
  120.4170  123.1158   85.4684 C   0  0  0  0  0  0  0  0  0  0  0  0
  119.9752  123.3355   86.5960 O   0  0  0  0  0  0  0  0  0  0  0  0
  119.6838  123.5670   84.1751 C   0  0  0  0  0  0  0  0  0  0  0  0
  120.0712  122.3960   82.8806 Cl  0  0  0  0  0  0  0  0  0  0  0  0
  117.9265  123.6446   84.4142 Cl  0  0  0  0  0  0  0  0  0  0  0  0
  120.3012  125.1804   83.7088 Cl  0  0  0  0  0  0  0  0  0  0  0  0
  122.4698  121.6239   87.4163 C   0  0  0  0  0  0  0  0  0  0  0  0
  123.5664  121.3823   88.2576 C   0  0  0  0  0  0  0  0  0  0  0  0
  123.2497  120.7225   89.8248 Cl  0  0  0  0  0  0  0  0  0  0  0  0
  126.0721  122.4344   86.1986 H   0  0  0  0  0  0  0  0  0  0  0  0
  124.1241  122.8616   84.7089 H   0  0  0  0  0  0  0  0  0  0  0  0
  121.7526  122.0835   84.2674 H   0  0  0  0  0  0  0  0  0  0  0  0
  121.4530  121.3924   87.7664 H   0  0  0  0  0  0  0  0  0  0  0  0
  1  2  3  0
  2  3  1  0
  3  4  2  0
  4  5  1  0
  5  6  2  0
  6  7  1  0
  7  8  1  0
  8  9  2  0
  8 10  1  0
 10 11  1  0
 10 12  1  0
 10 13  1  0
  6 14  1  0
 14 15  2  0
 15 16  1  0
 15  3  1  0
  4 17  1  0
  5 18  1  0
  7 19  1  0
 14 20  1  0
M  END
>  <loss>  (8) 
0.5408518314361572

>  <score>  (8) 
3.436720848083496

$$$$
RNQZJZGVFTZVDW-UHFFFAOYSA-N
     RDKit          3D

 20 20  0  0  0  0  0  0  0  0999 V2000
  126.7865  120.5795   88.9977 N   0  0  0  0  0  0  0  0  0  0  0  0
  125.8659  121.0473   88.4681 C   0  0  0  0  0  0  0  0  0  0  0  0
  124.7495  121.6305   87.7839 C   0  0  0  0  0  0  0  0  0  0  0  0
  124.9183  122.0760   86.4682 C   0  0  0  0  0  0  0  0  0  0  0  0
  123.8512  122.6516   85.7661 C   0  0  0  0  0  0  0  0  0  0  0  0
  122.5995  122.7916   86.3666 C   0  0  0  0  0  0  0  0  0  0  0  0
  121.4729  123.3575   85.7339 N   0  0  0  0  0  0  0  0  0  0  0  0
  120.3180  122.7036   85.2830 C   0  0  0  0  0  0  0  0  0  0  0  0
  119.8953  121.6558   85.7724 O   0  0  0  0  0  0  0  0  0  0  0  0
  119.5907  123.4416   84.1249 C   0  0  0  0  0  0  0  0  0  0  0  0
  118.0482  122.5935   83.8206 Cl  0  0  0  0  0  0  0  0  0  0  0  0
  119.2459  125.1220   84.6370 Cl  0  0  0  0  0  0  0  0  0  0  0  0
  120.5773  123.4628   82.6486 Cl  0  0  0  0  0  0  0  0  0  0  0  0
  122.4320  122.3443   87.6834 C   0  0  0  0  0  0  0  0  0  0  0  0
  123.4981  121.7682   88.3881 C   0  0  0  0  0  0  0  0  0  0  0  0
  123.1984  121.2457   90.0085 Cl  0  0  0  0  0  0  0  0  0  0  0  0
  125.8988  121.9734   85.9802 H   0  0  0  0  0  0  0  0  0  0  0  0
  124.0014  122.9962   84.7323 H   0  0  0  0  0  0  0  0  0  0  0  0
  121.5025  124.3763   85.5851 H   0  0  0  0  0  0  0  0  0  0  0  0
  121.4512  122.4466   88.1709 H   0  0  0  0  0  0  0  0  0  0  0  0
  1  2  3  0
  2  3  1  0
  3  4  2  0
  4  5  1  0
  5  6  2  0
  6  7  1  0
  7  8  1  0
  8  9  2  0
  8 10  1  0
 10 11  1  0
 10 12  1  0
 10 13  1  0
  6 14  1  0
 14 15  2  0
 15 16  1  0
 15  3  1  0
  4 17  1  0
  5 18  1  0
  7 19  1  0
 14 20  1  0
M  END
>  <loss>  (9) 
0.5601144433021545

>  <score>  (9) 
3.520230770111084

$$$$
RNQZJZGVFTZVDW-UHFFFAOYSA-N
     RDKit          3D

 20 20  0  0  0  0  0  0  0  0999 V2000
  126.7338  120.6113   89.1903 N   0  0  0  0  0  0  0  0  0  0  0  0
  125.8549  121.0592   88.5789 C   0  0  0  0  0  0  0  0  0  0  0  0
  124.7920  121.6159   87.7949 C   0  0  0  0  0  0  0  0  0  0  0  0
  125.0505  121.9911   86.4718 C   0  0  0  0  0  0  0  0  0  0  0  0
  124.0378  122.5389   85.6734 C   0  0  0  0  0  0  0  0  0  0  0  0
  122.7519  122.7209   86.1835 C   0  0  0  0  0  0  0  0  0  0  0  0
  121.6752  123.2633   85.4510 N   0  0  0  0  0  0  0  0  0  0  0  0
  120.3775  122.7503   85.3181 C   0  0  0  0  0  0  0  0  0  0  0  0
  119.8646  121.9805   86.1306 O   0  0  0  0  0  0  0  0  0  0  0  0
  119.6226  123.2709   84.0636 C   0  0  0  0  0  0  0  0  0  0  0  0
  117.8716  123.0807   84.3623 Cl  0  0  0  0  0  0  0  0  0  0  0  0
  119.9956  125.0080   83.8441 Cl  0  0  0  0  0  0  0  0  0  0  0  0
  120.0938  122.3747   82.6048 Cl  0  0  0  0  0  0  0  0  0  0  0  0
  122.4946  122.3441   87.5079 C   0  0  0  0  0  0  0  0  0  0  0  0
  123.5061  121.7959   88.3088 C   0  0  0  0  0  0  0  0  0  0  0  0
  123.0965  121.3609   89.9310 Cl  0  0  0  0  0  0  0  0  0  0  0  0
  126.0590  121.8546   86.0542 H   0  0  0  0  0  0  0  0  0  0  0  0
  124.2583  122.8280   84.6353 H   0  0  0  0  0  0  0  0  0  0  0  0
  121.8660  124.1443   84.9528 H   0  0  0  0  0  0  0  0  0  0  0  0
  121.4858  122.4802   87.9249 H   0  0  0  0  0  0  0  0  0  0  0  0
  1  2  3  0
  2  3  1  0
  3  4  2  0
  4  5  1  0
  5  6  2  0
  6  7  1  0
  7  8  1  0
  8  9  2  0
  8 10  1  0
 10 11  1  0
 10 12  1  0
 10 13  1  0
  6 14  1  0
 14 15  2  0
 15 16  1  0
 15  3  1  0
  4 17  1  0
  5 18  1  0
  7 19  1  0
 14 20  1  0
M  END
>  <loss>  (10) 
0.555916965007782

>  <score>  (10) 
3.471475839614868

$$$$
RNQZJZGVFTZVDW-UHFFFAOYSA-N
     RDKit          3D

 20 20  0  0  0  0  0  0  0  0999 V2000
  126.3930  121.2806   89.5382 N   0  0  0  0  0  0  0  0  0  0  0  0
  125.4923  121.4645   88.8299 C   0  0  0  0  0  0  0  0  0  0  0  0
  124.4138  121.7047   87.9165 C   0  0  0  0  0  0  0  0  0  0  0  0
  124.7131  122.1137   86.6120 C   0  0  0  0  0  0  0  0  0  0  0  0
  123.6860  122.3572   85.6940 C   0  0  0  0  0  0  0  0  0  0  0  0
  122.3441  122.1970   86.0612 C   0  0  0  0  0  0  0  0  0  0  0  0
  121.3772  122.4648   85.0696 N   0  0  0  0  0  0  0  0  0  0  0  0
  120.4189  123.4877   85.0526 C   0  0  0  0  0  0  0  0  0  0  0  0
  120.2878  124.3103   85.9587 O   0  0  0  0  0  0  0  0  0  0  0  0
  119.5218  123.4836   83.7841 C   0  0  0  0  0  0  0  0  0  0  0  0
  120.5690  123.1895   82.3650 Cl  0  0  0  0  0  0  0  0  0  0  0  0
  118.2648  122.2336   83.8777 Cl  0  0  0  0  0  0  0  0  0  0  0  0
  118.7599  125.0948   83.6254 Cl  0  0  0  0  0  0  0  0  0  0  0  0
  122.0480  121.7884   87.3634 C   0  0  0  0  0  0  0  0  0  0  0  0
  123.0759  121.5435   88.2866 C   0  0  0  0  0  0  0  0  0  0  0  0
  122.6257  121.0407   89.8791 Cl  0  0  0  0  0  0  0  0  0  0  0  0
  125.7617  122.2446   86.3068 H   0  0  0  0  0  0  0  0  0  0  0  0
  123.9353  122.6781   84.6718 H   0  0  0  0  0  0  0  0  0  0  0  0
  121.3750  121.8305   84.2580 H   0  0  0  0  0  0  0  0  0  0  0  0
  120.9992  121.6574   87.6683 H   0  0  0  0  0  0  0  0  0  0  0  0
  1  2  3  0
  2  3  1  0
  3  4  2  0
  4  5  1  0
  5  6  2  0
  6  7  1  0
  7  8  1  0
  8  9  2  0
  8 10  1  0
 10 11  1  0
 10 12  1  0
 10 13  1  0
  6 14  1  0
 14 15  2  0
 15 16  1  0
 15  3  1  0
  4 17  1  0
  5 18  1  0
  7 19  1  0
 14 20  1  0
M  END
>  <loss>  (11) 
0.5615891814231873

>  <score>  (11) 
3.377840042114258

$$$$
RNQZJZGVFTZVDW-UHFFFAOYSA-N
     RDKit          3D

 20 20  0  0  0  0  0  0  0  0999 V2000
  126.4446  121.0805   89.4031 N   0  0  0  0  0  0  0  0  0  0  0  0
  125.4998  121.3499   88.7852 C   0  0  0  0  0  0  0  0  0  0  0  0
  124.3549  121.6946   87.9948 C   0  0  0  0  0  0  0  0  0  0  0  0
  124.5499  122.2549   86.7275 C   0  0  0  0  0  0  0  0  0  0  0  0
  123.4562  122.6053   85.9249 C   0  0  0  0  0  0  0  0  0  0  0  0
  122.1513  122.4022   86.3753 C   0  0  0  0  0  0  0  0  0  0  0  0
  120.9951  122.7245   85.6341 N   0  0  0  0  0  0  0  0  0  0  0  0
  120.8986  122.9991   84.2630 C   0  0  0  0  0  0  0  0  0  0  0  0
  121.8574  122.9552   83.4919 O   0  0  0  0  0  0  0  0  0  0  0  0
  119.4563  123.3318   83.7898 C   0  0  0  0  0  0  0  0  0  0  0  0
  118.8371  124.7103   84.7496 Cl  0  0  0  0  0  0  0  0  0  0  0  0
  119.4196  123.7475   82.0638 Cl  0  0  0  0  0  0  0  0  0  0  0  0
  118.4361  121.8981   84.0979 Cl  0  0  0  0  0  0  0  0  0  0  0  0
  121.9577  121.8406   87.6439 C   0  0  0  0  0  0  0  0  0  0  0  0
  123.0503  121.4892   88.4487 C   0  0  0  0  0  0  0  0  0  0  0  0
  122.7153  120.8028   89.9996 Cl  0  0  0  0  0  0  0  0  0  0  0  0
  125.5723  122.4219   86.3575 H   0  0  0  0  0  0  0  0  0  0  0  0
  123.6278  123.0443   84.9310 H   0  0  0  0  0  0  0  0  0  0  0  0
  120.1137  122.7626   86.1657 H   0  0  0  0  0  0  0  0  0  0  0  0
  120.9352  121.6732   88.0133 H   0  0  0  0  0  0  0  0  0  0  0  0
  1  2  3  0
  2  3  1  0
  3  4  2  0
  4  5  1  0
  5  6  2  0
  6  7  1  0
  7  8  1  0
  8  9  2  0
  8 10  1  0
 10 11  1  0
 10 12  1  0
 10 13  1  0
  6 14  1  0
 14 15  2  0
 15 16  1  0
 15  3  1  0
  4 17  1  0
  5 18  1  0
  7 19  1  0
 14 20  1  0
M  END
>  <loss>  (12) 
0.563663899898529

>  <score>  (12) 
3.3431732654571533

$$$$
RNQZJZGVFTZVDW-UHFFFAOYSA-N
     RDKit          3D

 20 20  0  0  0  0  0  0  0  0999 V2000
  126.4363  121.0349   89.3640 N   0  0  0  0  0  0  0  0  0  0  0  0
  125.4950  121.3302   88.7527 C   0  0  0  0  0  0  0  0  0  0  0  0
  124.3546  121.7085   87.9713 C   0  0  0  0  0  0  0  0  0  0  0  0
  124.5566  122.3321   86.7350 C   0  0  0  0  0  0  0  0  0  0  0  0
  123.4673  122.7167   85.9421 C   0  0  0  0  0  0  0  0  0  0  0  0
  122.1600  122.4853   86.3713 C   0  0  0  0  0  0  0  0  0  0  0  0
  121.0080  122.8385   85.6378 N   0  0  0  0  0  0  0  0  0  0  0  0
  120.8573  122.8995   84.2455 C   0  0  0  0  0  0  0  0  0  0  0  0
  121.7497  122.6006   83.4516 O   0  0  0  0  0  0  0  0  0  0  0  0
  119.4416  123.3466   83.7867 C   0  0  0  0  0  0  0  0  0  0  0  0
  119.0288  124.8435   84.6701 Cl  0  0  0  0  0  0  0  0  0  0  0  0
  119.4861  123.6942   82.0311 Cl  0  0  0  0  0  0  0  0  0  0  0  0
  118.2280  122.0917   84.1117 Cl  0  0  0  0  0  0  0  0  0  0  0  0
  121.9595  121.8603   87.6087 C   0  0  0  0  0  0  0  0  0  0  0  0
  123.0476  121.4744   88.4039 C   0  0  0  0  0  0  0  0  0  0  0  0
  122.7040  120.7101   89.9159 Cl  0  0  0  0  0  0  0  0  0  0  0  0
  125.5809  122.5222   86.3820 H   0  0  0  0  0  0  0  0  0  0  0  0
  123.6444  123.2056   84.9727 H   0  0  0  0  0  0  0  0  0  0  0  0
  120.1754  123.0814   86.1934 H   0  0  0  0  0  0  0  0  0  0  0  0
  120.9350  121.6698   87.9611 H   0  0  0  0  0  0  0  0  0  0  0  0
  1  2  3  0
  2  3  1  0
  3  4  2  0
  4  5  1  0
  5  6  2  0
  6  7  1  0
  7  8  1  0
  8  9  2  0
  8 10  1  0
 10 11  1  0
 10 12  1  0
 10 13  1  0
  6 14  1  0
 14 15  2  0
 15 16  1  0
 15  3  1  0
  4 17  1  0
  5 18  1  0
  7 19  1  0
 14 20  1  0
M  END
>  <loss>  (13) 
0.559842586517334

>  <score>  (13) 
3.3240134716033936

$$$$
RNQZJZGVFTZVDW-UHFFFAOYSA-N
     RDKit          3D

 20 20  0  0  0  0  0  0  0  0999 V2000
  126.3738  121.2633   89.6027 N   0  0  0  0  0  0  0  0  0  0  0  0
  125.4906  121.4559   88.8748 C   0  0  0  0  0  0  0  0  0  0  0  0
  124.4348  121.7083   87.9385 C   0  0  0  0  0  0  0  0  0  0  0  0
  124.7647  122.1568   86.6545 C   0  0  0  0  0  0  0  0  0  0  0  0
  123.7603  122.4132   85.7152 C   0  0  0  0  0  0  0  0  0  0  0  0
  122.4109  122.2272   86.0404 C   0  0  0  0  0  0  0  0  0  0  0  0
  121.4684  122.5106   85.0298 N   0  0  0  0  0  0  0  0  0  0  0  0
  120.3191  123.3077   85.1206 C   0  0  0  0  0  0  0  0  0  0  0  0
  119.9766  123.8902   86.1494 O   0  0  0  0  0  0  0  0  0  0  0  0
  119.4958  123.3721   83.8046 C   0  0  0  0  0  0  0  0  0  0  0  0
  118.3090  124.6918   83.8423 Cl  0  0  0  0  0  0  0  0  0  0  0  0
  118.6616  121.8046   83.6004 Cl  0  0  0  0  0  0  0  0  0  0  0  0
  120.6238  123.6177   82.4366 Cl  0  0  0  0  0  0  0  0  0  0  0  0
  122.0843  121.7791   87.3222 C   0  0  0  0  0  0  0  0  0  0  0  0
  123.0894  121.5210   88.2666 C   0  0  0  0  0  0  0  0  0  0  0  0
  122.6019  120.9689   89.8316 Cl  0  0  0  0  0  0  0  0  0  0  0  0
  125.8196  122.3085   86.3823 H   0  0  0  0  0  0  0  0  0  0  0  0
  124.0336  122.7650   84.7095 H   0  0  0  0  0  0  0  0  0  0  0  0
  121.6467  122.0784   84.1120 H   0  0  0  0  0  0  0  0  0  0  0  0
  121.0292  121.6271   87.5939 H   0  0  0  0  0  0  0  0  0  0  0  0
  1  2  3  0
  2  3  1  0
  3  4  2  0
  4  5  1  0
  5  6  2  0
  6  7  1  0
  7  8  1  0
  8  9  2  0
  8 10  1  0
 10 11  1  0
 10 12  1  0
 10 13  1  0
  6 14  1  0
 14 15  2  0
 15 16  1  0
 15  3  1  0
  4 17  1  0
  5 18  1  0
  7 19  1  0
 14 20  1  0
M  END
>  <loss>  (14) 
0.5687991976737976

>  <score>  (14) 
3.366046190261841

$$$$
RNQZJZGVFTZVDW-UHFFFAOYSA-N
     RDKit          3D

 20 20  0  0  0  0  0  0  0  0999 V2000
  126.3793  121.2702   89.6093 N   0  0  0  0  0  0  0  0  0  0  0  0
  125.4955  121.4615   88.8818 C   0  0  0  0  0  0  0  0  0  0  0  0
  124.4389  121.7124   87.9461 C   0  0  0  0  0  0  0  0  0  0  0  0
  124.7675  122.1596   86.6613 C   0  0  0  0  0  0  0  0  0  0  0  0
  123.7624  122.4145   85.7225 C   0  0  0  0  0  0  0  0  0  0  0  0
  122.4133  122.2282   86.0489 C   0  0  0  0  0  0  0  0  0  0  0  0
  121.4699  122.5098   85.0387 N   0  0  0  0  0  0  0  0  0  0  0  0
  120.3295  123.3200   85.1244 C   0  0  0  0  0  0  0  0  0  0  0  0
  119.9919  123.9104   86.1504 O   0  0  0  0  0  0  0  0  0  0  0  0
  119.5046  123.3831   83.8092 C   0  0  0  0  0  0  0  0  0  0  0  0
  120.6292  123.6174   82.4360 Cl  0  0  0  0  0  0  0  0  0  0  0  0
  118.6630  121.8187   83.6152 Cl  0  0  0  0  0  0  0  0  0  0  0  0
  118.3253  124.7096   83.8439 Cl  0  0  0  0  0  0  0  0  0  0  0  0
  122.0878  121.7812   87.3314 C   0  0  0  0  0  0  0  0  0  0  0  0
  123.0937  121.5246   88.2753 C   0  0  0  0  0  0  0  0  0  0  0  0
  122.6077  120.9736   89.8412 Cl  0  0  0  0  0  0  0  0  0  0  0  0
  125.8222  122.3116   86.3883 H   0  0  0  0  0  0  0  0  0  0  0  0
  124.0347  122.7653   84.7162 H   0  0  0  0  0  0  0  0  0  0  0  0
  121.6401  122.0651   84.1253 H   0  0  0  0  0  0  0  0  0  0  0  0
  121.0331  121.6288   87.6040 H   0  0  0  0  0  0  0  0  0  0  0  0
  1  2  3  0
  2  3  1  0
  3  4  2  0
  4  5  1  0
  5  6  2  0
  6  7  1  0
  7  8  1  0
  8  9  2  0
  8 10  1  0
 10 11  1  0
 10 12  1  0
 10 13  1  0
  6 14  1  0
 14 15  2  0
 15 16  1  0
 15  3  1  0
  4 17  1  0
  5 18  1  0
  7 19  1  0
 14 20  1  0
M  END
>  <loss>  (15) 
0.5692799687385559

>  <score>  (15) 
3.3670456409454346

$$$$
RNQZJZGVFTZVDW-UHFFFAOYSA-N
     RDKit          3D

 20 20  0  0  0  0  0  0  0  0999 V2000
  126.3813  121.2732   89.5784 N   0  0  0  0  0  0  0  0  0  0  0  0
  125.4863  121.4575   88.8629 C   0  0  0  0  0  0  0  0  0  0  0  0
  124.4153  121.6989   87.9411 C   0  0  0  0  0  0  0  0  0  0  0  0
  124.7241  122.1295   86.6458 C   0  0  0  0  0  0  0  0  0  0  0  0
  123.7045  122.3748   85.7201 C   0  0  0  0  0  0  0  0  0  0  0  0
  122.3605  122.1952   86.0703 C   0  0  0  0  0  0  0  0  0  0  0  0
  121.4015  122.4666   85.0720 N   0  0  0  0  0  0  0  0  0  0  0  0
  120.3820  123.4284   85.0934 C   0  0  0  0  0  0  0  0  0  0  0  0
  120.1721  124.1741   86.0499 O   0  0  0  0  0  0  0  0  0  0  0  0
  119.5259  123.4617   83.7973 C   0  0  0  0  0  0  0  0  0  0  0  0
  118.5493  121.9650   83.7392 Cl  0  0  0  0  0  0  0  0  0  0  0  0
  118.4606  124.8810   83.7548 Cl  0  0  0  0  0  0  0  0  0  0  0  0
  120.6312  123.4943   82.3906 Cl  0  0  0  0  0  0  0  0  0  0  0  0
  122.0548  121.7652   87.3634 C   0  0  0  0  0  0  0  0  0  0  0  0
  123.0753  121.5183   88.2943 C   0  0  0  0  0  0  0  0  0  0  0  0
  122.6134  120.9884   89.8746 Cl  0  0  0  0  0  0  0  0  0  0  0  0
  125.7746  122.2758   86.3539 H   0  0  0  0  0  0  0  0  0  0  0  0
  123.9614  122.7128   84.7053 H   0  0  0  0  0  0  0  0  0  0  0  0
  121.4572  121.8865   84.2227 H   0  0  0  0  0  0  0  0  0  0  0  0
  121.0043  121.6188   87.6549 H   0  0  0  0  0  0  0  0  0  0  0  0
  1  2  3  0
  2  3  1  0
  3  4  2  0
  4  5  1  0
  5  6  2  0
  6  7  1  0
  7  8  1  0
  8  9  2  0
  8 10  1  0
 10 11  1  0
 10 12  1  0
 10 13  1  0
  6 14  1  0
 14 15  2  0
 15 16  1  0
 15  3  1  0
  4 17  1  0
  5 18  1  0
  7 19  1  0
 14 20  1  0
M  END
>  <loss>  (16) 
0.5639538764953613

>  <score>  (16) 
3.339735746383667

$$$$
RNQZJZGVFTZVDW-UHFFFAOYSA-N
     RDKit          3D

 20 20  0  0  0  0  0  0  0  0999 V2000
  126.4063  121.3164   89.5486 N   0  0  0  0  0  0  0  0  0  0  0  0
  125.4990  121.4837   88.8446 C   0  0  0  0  0  0  0  0  0  0  0  0
  124.4119  121.7047   87.9366 C   0  0  0  0  0  0  0  0  0  0  0  0
  124.6964  122.1358   86.6359 C   0  0  0  0  0  0  0  0  0  0  0  0
  123.6606  122.3615   85.7232 C   0  0  0  0  0  0  0  0  0  0  0  0
  122.3244  122.1615   86.0921 C   0  0  0  0  0  0  0  0  0  0  0  0
  121.3479  122.4137   85.1059 N   0  0  0  0  0  0  0  0  0  0  0  0
  120.4344  123.4752   85.0476 C   0  0  0  0  0  0  0  0  0  0  0  0
  120.3348  124.3340   85.9238 O   0  0  0  0  0  0  0  0  0  0  0  0
  119.5346  123.4584   83.7811 C   0  0  0  0  0  0  0  0  0  0  0  0
  118.6221  121.9413   83.6501 Cl  0  0  0  0  0  0  0  0  0  0  0  0
  120.5903  123.6628   82.3535 Cl  0  0  0  0  0  0  0  0  0  0  0  0
  118.3970  124.8376   83.8704 Cl  0  0  0  0  0  0  0  0  0  0  0  0
  122.0431  121.7307   87.3905 C   0  0  0  0  0  0  0  0  0  0  0  0
  123.0799  121.5034   88.3083 C   0  0  0  0  0  0  0  0  0  0  0  0
  122.6479  120.9711   89.8963 Cl  0  0  0  0  0  0  0  0  0  0  0  0
  125.7403  122.2981   86.3295 H   0  0  0  0  0  0  0  0  0  0  0  0
  123.8983  122.6999   84.7040 H   0  0  0  0  0  0  0  0  0  0  0  0
  121.3002  121.7341   84.3334 H   0  0  0  0  0  0  0  0  0  0  0  0
  120.9991  121.5681   87.6965 H   0  0  0  0  0  0  0  0  0  0  0  0
  1  2  3  0
  2  3  1  0
  3  4  2  0
  4  5  1  0
  5  6  2  0
  6  7  1  0
  7  8  1  0
  8  9  2  0
  8 10  1  0
 10 11  1  0
 10 12  1  0
 10 13  1  0
  6 14  1  0
 14 15  2  0
 15 16  1  0
 15  3  1  0
  4 17  1  0
  5 18  1  0
  7 19  1  0
 14 20  1  0
M  END
>  <loss>  (17) 
0.5614684820175171

>  <score>  (17) 
3.294445276260376

$$$$
RNQZJZGVFTZVDW-UHFFFAOYSA-N
     RDKit          3D

 20 20  0  0  0  0  0  0  0  0999 V2000
  126.3989  121.2868   89.5535 N   0  0  0  0  0  0  0  0  0  0  0  0
  125.5028  121.4661   88.8381 C   0  0  0  0  0  0  0  0  0  0  0  0
  124.4303  121.7025   87.9168 C   0  0  0  0  0  0  0  0  0  0  0  0
  124.7356  122.1522   86.6271 C   0  0  0  0  0  0  0  0  0  0  0  0
  123.7144  122.3933   85.7020 C   0  0  0  0  0  0  0  0  0  0  0  0
  122.3724  122.1904   86.0472 C   0  0  0  0  0  0  0  0  0  0  0  0
  121.4117  122.4589   85.0498 N   0  0  0  0  0  0  0  0  0  0  0  0
  120.3913  123.4193   85.0707 C   0  0  0  0  0  0  0  0  0  0  0  0
  120.1856  124.1705   86.0239 O   0  0  0  0  0  0  0  0  0  0  0  0
  119.5154  123.4318   83.7874 C   0  0  0  0  0  0  0  0  0  0  0  0
  118.1767  124.5984   84.0164 Cl  0  0  0  0  0  0  0  0  0  0  0  0
  120.5409  123.9779   82.4298 Cl  0  0  0  0  0  0  0  0  0  0  0  0
  118.8486  121.8237   83.4392 Cl  0  0  0  0  0  0  0  0  0  0  0  0
  122.0703  121.7409   87.3345 C   0  0  0  0  0  0  0  0  0  0  0  0
  123.0923  121.4982   88.2647 C   0  0  0  0  0  0  0  0  0  0  0  0
  122.6349  120.9432   89.8378 Cl  0  0  0  0  0  0  0  0  0  0  0  0
  125.7844  122.3171   86.3394 H   0  0  0  0  0  0  0  0  0  0  0  0
  123.9685  122.7462   84.6916 H   0  0  0  0  0  0  0  0  0  0  0  0
  121.4670  121.8773   84.2015 H   0  0  0  0  0  0  0  0  0  0  0  0
  121.0215  121.5757   87.6218 H   0  0  0  0  0  0  0  0  0  0  0  0
  1  2  3  0
  2  3  1  0
  3  4  2  0
  4  5  1  0
  5  6  2  0
  6  7  1  0
  7  8  1  0
  8  9  2  0
  8 10  1  0
 10 11  1  0
 10 12  1  0
 10 13  1  0
  6 14  1  0
 14 15  2  0
 15 16  1  0
 15  3  1  0
  4 17  1  0
  5 18  1  0
  7 19  1  0
 14 20  1  0
M  END
>  <loss>  (18) 
0.5614137053489685

>  <score>  (18) 
3.293828010559082

$$$$
RNQZJZGVFTZVDW-UHFFFAOYSA-N
     RDKit          3D

 20 20  0  0  0  0  0  0  0  0999 V2000
  126.4837  121.1073   89.4051 N   0  0  0  0  0  0  0  0  0  0  0  0
  125.5344  121.3720   88.7921 C   0  0  0  0  0  0  0  0  0  0  0  0
  124.3838  121.7121   88.0081 C   0  0  0  0  0  0  0  0  0  0  0  0
  124.5691  122.3033   86.7533 C   0  0  0  0  0  0  0  0  0  0  0  0
  123.4695  122.6502   85.9573 C   0  0  0  0  0  0  0  0  0  0  0  0
  122.1684  122.4129   86.4017 C   0  0  0  0  0  0  0  0  0  0  0  0
  121.0068  122.7292   85.6664 N   0  0  0  0  0  0  0  0  0  0  0  0
  120.8827  122.8967   84.2803 C   0  0  0  0  0  0  0  0  0  0  0  0
  121.8136  122.7370   83.4904 O   0  0  0  0  0  0  0  0  0  0  0  0
  119.4463  123.2696   83.8194 C   0  0  0  0  0  0  0  0  0  0  0  0
  118.5711  121.7504   83.4771 Cl  0  0  0  0  0  0  0  0  0  0  0  0
  118.6195  124.1367   85.1497 Cl  0  0  0  0  0  0  0  0  0  0  0  0
  119.4760  124.2967   82.3711 Cl  0  0  0  0  0  0  0  0  0  0  0  0
  121.9846  121.8204   87.6576 C   0  0  0  0  0  0  0  0  0  0  0  0
  123.0830  121.4723   88.4560 C   0  0  0  0  0  0  0  0  0  0  0  0
  122.7598  120.7464   89.9912 Cl  0  0  0  0  0  0  0  0  0  0  0  0
  125.5884  122.4975   86.3882 H   0  0  0  0  0  0  0  0  0  0  0  0
  123.6335  123.1138   84.9734 H   0  0  0  0  0  0  0  0  0  0  0  0
  120.1440  122.8521   86.2154 H   0  0  0  0  0  0  0  0  0  0  0  0
  120.9651  121.6257   88.0221 H   0  0  0  0  0  0  0  0  0  0  0  0
  1  2  3  0
  2  3  1  0
  3  4  2  0
  4  5  1  0
  5  6  2  0
  6  7  1  0
  7  8  1  0
  8  9  2  0
  8 10  1  0
 10 11  1  0
 10 12  1  0
 10 13  1  0
  6 14  1  0
 14 15  2  0
 15 16  1  0
 15  3  1  0
  4 17  1  0
  5 18  1  0
  7 19  1  0
 14 20  1  0
M  END
>  <loss>  (19) 
0.5683236122131348

>  <score>  (19) 
3.324702262878418

$$$$
RNQZJZGVFTZVDW-UHFFFAOYSA-N
     RDKit          3D

 20 20  0  0  0  0  0  0  0  0999 V2000
  126.4052  121.0112   89.3624 N   0  0  0  0  0  0  0  0  0  0  0  0
  125.4735  121.3180   88.7422 C   0  0  0  0  0  0  0  0  0  0  0  0
  124.3452  121.7115   87.9506 C   0  0  0  0  0  0  0  0  0  0  0  0
  124.5660  122.3705   86.7361 C   0  0  0  0  0  0  0  0  0  0  0  0
  123.4891  122.7710   85.9342 C   0  0  0  0  0  0  0  0  0  0  0  0
  122.1756  122.5202   86.3325 C   0  0  0  0  0  0  0  0  0  0  0  0
  121.0351  122.8872   85.5879 N   0  0  0  0  0  0  0  0  0  0  0  0
  120.8604  122.8388   84.1980 C   0  0  0  0  0  0  0  0  0  0  0  0
  121.7034  122.3873   83.4224 O   0  0  0  0  0  0  0  0  0  0  0  0
  119.4830  123.3760   83.7196 C   0  0  0  0  0  0  0  0  0  0  0  0
  118.3554  121.9927   83.6395 Cl  0  0  0  0  0  0  0  0  0  0  0  0
  118.8764  124.5594   84.9181 Cl  0  0  0  0  0  0  0  0  0  0  0  0
  119.6076  124.1549   82.1287 Cl  0  0  0  0  0  0  0  0  0  0  0  0
  121.9563  121.8598   87.5482 C   0  0  0  0  0  0  0  0  0  0  0  0
  123.0320  121.4581   88.3523 C   0  0  0  0  0  0  0  0  0  0  0  0
  122.6654  120.6499   89.8359 Cl  0  0  0  0  0  0  0  0  0  0  0  0
  125.5954  122.5762   86.4075 H   0  0  0  0  0  0  0  0  0  0  0  0
  123.6809  123.2876   84.9822 H   0  0  0  0  0  0  0  0  0  0  0  0
  120.2322  123.2332   86.1324 H   0  0  0  0  0  0  0  0  0  0  0  0
  120.9267  121.6537   87.8761 H   0  0  0  0  0  0  0  0  0  0  0  0
  1  2  3  0
  2  3  1  0
  3  4  2  0
  4  5  1  0
  5  6  2  0
  6  7  1  0
  7  8  1  0
  8  9  2  0
  8 10  1  0
 10 11  1  0
 10 12  1  0
 10 13  1  0
  6 14  1  0
 14 15  2  0
 15 16  1  0
 15  3  1  0
  4 17  1  0
  5 18  1  0
  7 19  1  0
 14 20  1  0
M  END
>  <loss>  (20) 
0.5619803071022034

>  <score>  (20) 
3.2883167266845703

$$$$
RNQZJZGVFTZVDW-UHFFFAOYSA-N
     RDKit          3D

 20 20  0  0  0  0  0  0  0  0999 V2000
  126.3851  121.3032   89.5940 N   0  0  0  0  0  0  0  0  0  0  0  0
  125.4962  121.4775   88.8685 C   0  0  0  0  0  0  0  0  0  0  0  0
  124.4330  121.7073   87.9349 C   0  0  0  0  0  0  0  0  0  0  0  0
  124.7512  122.1461   86.6445 C   0  0  0  0  0  0  0  0  0  0  0  0
  123.7393  122.3805   85.7076 C   0  0  0  0  0  0  0  0  0  0  0  0
  122.3938  122.1818   86.0414 C   0  0  0  0  0  0  0  0  0  0  0  0
  121.4430  122.4431   85.0326 N   0  0  0  0  0  0  0  0  0  0  0  0
  120.4378  123.4198   85.0264 C   0  0  0  0  0  0  0  0  0  0  0  0
  120.2074  124.1631   85.9801 O   0  0  0  0  0  0  0  0  0  0  0  0
  119.6171  123.4656   83.7079 C   0  0  0  0  0  0  0  0  0  0  0  0
  119.4081  125.1304   83.1279 Cl  0  0  0  0  0  0  0  0  0  0  0  0
  118.0224  122.7239   84.0266 Cl  0  0  0  0  0  0  0  0  0  0  0  0
  120.4743  122.5007   82.4677 Cl  0  0  0  0  0  0  0  0  0  0  0  0
  122.0787  121.7435   87.3295 C   0  0  0  0  0  0  0  0  0  0  0  0
  123.0914  121.5074   88.2716 C   0  0  0  0  0  0  0  0  0  0  0  0
  122.6182  120.9661   89.8447 Cl  0  0  0  0  0  0  0  0  0  0  0  0
  125.8029  122.3075   86.3656 H   0  0  0  0  0  0  0  0  0  0  0  0
  124.0035  122.7248   84.6969 H   0  0  0  0  0  0  0  0  0  0  0  0
  121.4938  121.8421   84.1977 H   0  0  0  0  0  0  0  0  0  0  0  0
  121.0270  121.5818   87.6080 H   0  0  0  0  0  0  0  0  0  0  0  0
  1  2  3  0
  2  3  1  0
  3  4  2  0
  4  5  1  0
  5  6  2  0
  6  7  1  0
  7  8  1  0
  8  9  2  0
  8 10  1  0
 10 11  1  0
 10 12  1  0
 10 13  1  0
  6 14  1  0
 14 15  2  0
 15 16  1  0
 15  3  1  0
  4 17  1  0
  5 18  1  0
  7 19  1  0
 14 20  1  0
M  END
>  <loss>  (21) 
0.5629444122314453

>  <score>  (21) 
3.286432981491089

$$$$
RNQZJZGVFTZVDW-UHFFFAOYSA-N
     RDKit          3D

 20 20  0  0  0  0  0  0  0  0999 V2000
  126.4005  121.0159   89.3745 N   0  0  0  0  0  0  0  0  0  0  0  0
  125.4677  121.3216   88.7554 C   0  0  0  0  0  0  0  0  0  0  0  0
  124.3380  121.7144   87.9656 C   0  0  0  0  0  0  0  0  0  0  0  0
  124.5556  122.3991   86.7647 C   0  0  0  0  0  0  0  0  0  0  0  0
  123.4773  122.7998   85.9649 C   0  0  0  0  0  0  0  0  0  0  0  0
  122.1654  122.5238   86.3518 C   0  0  0  0  0  0  0  0  0  0  0  0
  121.0235  122.8892   85.6084 N   0  0  0  0  0  0  0  0  0  0  0  0
  120.8406  122.8224   84.2203 C   0  0  0  0  0  0  0  0  0  0  0  0
  121.6703  122.3419   83.4479 O   0  0  0  0  0  0  0  0  0  0  0  0
  119.4719  123.3800   83.7403 C   0  0  0  0  0  0  0  0  0  0  0  0
  118.2609  122.0627   83.7929 Cl  0  0  0  0  0  0  0  0  0  0  0  0
  118.9266  124.7273   84.7606 Cl  0  0  0  0  0  0  0  0  0  0  0  0
  119.6679  123.9289   82.0516 Cl  0  0  0  0  0  0  0  0  0  0  0  0
  121.9493  121.8378   87.5538 C   0  0  0  0  0  0  0  0  0  0  0  0
  123.0264  121.4357   88.3558 C   0  0  0  0  0  0  0  0  0  0  0  0
  122.6638  120.5950   89.8221 Cl  0  0  0  0  0  0  0  0  0  0  0  0
  125.5837  122.6249   86.4453 H   0  0  0  0  0  0  0  0  0  0  0  0
  123.6665  123.3368   85.0238 H   0  0  0  0  0  0  0  0  0  0  0  0
  120.2264  123.2492   86.1524 H   0  0  0  0  0  0  0  0  0  0  0  0
  120.9210  121.6116   87.8726 H   0  0  0  0  0  0  0  0  0  0  0  0
  1  2  3  0
  2  3  1  0
  3  4  2  0
  4  5  1  0
  5  6  2  0
  6  7  1  0
  7  8  1  0
  8  9  2  0
  8 10  1  0
 10 11  1  0
 10 12  1  0
 10 13  1  0
  6 14  1  0
 14 15  2  0
 15 16  1  0
 15  3  1  0
  4 17  1  0
  5 18  1  0
  7 19  1  0
 14 20  1  0
M  END
>  <loss>  (22) 
0.5581082701683044

>  <score>  (22) 
3.2608699798583984

$$$$
RNQZJZGVFTZVDW-UHFFFAOYSA-N
     RDKit          3D

 20 20  0  0  0  0  0  0  0  0999 V2000
  126.4119  121.3335   89.5584 N   0  0  0  0  0  0  0  0  0  0  0  0
  125.5074  121.4975   88.8500 C   0  0  0  0  0  0  0  0  0  0  0  0
  124.4240  121.7142   87.9366 C   0  0  0  0  0  0  0  0  0  0  0  0
  124.7138  122.1355   86.6339 C   0  0  0  0  0  0  0  0  0  0  0  0
  123.6817  122.3567   85.7160 C   0  0  0  0  0  0  0  0  0  0  0  0
  122.3439  122.1621   86.0816 C   0  0  0  0  0  0  0  0  0  0  0  0
  121.3713  122.4091   85.0902 N   0  0  0  0  0  0  0  0  0  0  0  0
  120.4515  123.4647   85.0276 C   0  0  0  0  0  0  0  0  0  0  0  0
  120.3069  124.2931   85.9265 O   0  0  0  0  0  0  0  0  0  0  0  0
  119.6013  123.4795   83.7272 C   0  0  0  0  0  0  0  0  0  0  0  0
  120.6060  122.8698   82.3766 Cl  0  0  0  0  0  0  0  0  0  0  0  0
  118.2143  122.3787   83.9673 Cl  0  0  0  0  0  0  0  0  0  0  0  0
  119.0233  125.1143   83.3463 Cl  0  0  0  0  0  0  0  0  0  0  0  0
  122.0572  121.7410   87.3820 C   0  0  0  0  0  0  0  0  0  0  0  0
  123.0902  121.5182   88.3050 C   0  0  0  0  0  0  0  0  0  0  0  0
  122.6516  120.9980   89.8952 Cl  0  0  0  0  0  0  0  0  0  0  0  0
  125.7591  122.2935   86.3300 H   0  0  0  0  0  0  0  0  0  0  0  0
  123.9237  122.6873   84.6952 H   0  0  0  0  0  0  0  0  0  0  0  0
  121.3324  121.7299   84.3168 H   0  0  0  0  0  0  0  0  0  0  0  0
  121.0118  121.5826   87.6854 H   0  0  0  0  0  0  0  0  0  0  0  0
  1  2  3  0
  2  3  1  0
  3  4  2  0
  4  5  1  0
  5  6  2  0
  6  7  1  0
  7  8  1  0
  8  9  2  0
  8 10  1  0
 10 11  1  0
 10 12  1  0
 10 13  1  0
  6 14  1  0
 14 15  2  0
 15 16  1  0
 15  3  1  0
  4 17  1  0
  5 18  1  0
  7 19  1  0
 14 20  1  0
M  END
>  <loss>  (23) 
0.5630794167518616

>  <score>  (23) 
3.2328805923461914

$$$$
RNQZJZGVFTZVDW-UHFFFAOYSA-N
     RDKit          3D

 20 20  0  0  0  0  0  0  0  0999 V2000
  126.4290  121.0468   89.3745 N   0  0  0  0  0  0  0  0  0  0  0  0
  125.4908  121.3419   88.7585 C   0  0  0  0  0  0  0  0  0  0  0  0
  124.3541  121.7214   87.9721 C   0  0  0  0  0  0  0  0  0  0  0  0
  124.5606  122.3949   86.7630 C   0  0  0  0  0  0  0  0  0  0  0  0
  123.4752  122.7825   85.9663 C   0  0  0  0  0  0  0  0  0  0  0  0
  122.1672  122.5042   86.3645 C   0  0  0  0  0  0  0  0  0  0  0  0
  121.0188  122.8566   85.6249 N   0  0  0  0  0  0  0  0  0  0  0  0
  120.8445  122.8223   84.2345 C   0  0  0  0  0  0  0  0  0  0  0  0
  121.6988  122.4043   83.4526 O   0  0  0  0  0  0  0  0  0  0  0  0
  119.4529  123.3290   83.7640 C   0  0  0  0  0  0  0  0  0  0  0  0
  119.5156  123.6362   82.0015 Cl  0  0  0  0  0  0  0  0  0  0  0  0
  118.1785  122.1429   84.1138 Cl  0  0  0  0  0  0  0  0  0  0  0  0
  119.1142  124.8630   84.6146 Cl  0  0  0  0  0  0  0  0  0  0  0  0
  121.9622  121.8292   87.5747 C   0  0  0  0  0  0  0  0  0  0  0  0
  123.0464  121.4404   88.3736 C   0  0  0  0  0  0  0  0  0  0  0  0
  122.6974  120.6127   89.8506 Cl  0  0  0  0  0  0  0  0  0  0  0  0
  125.5855  122.6224   86.4347 H   0  0  0  0  0  0  0  0  0  0  0  0
  123.6558  123.3109   85.0186 H   0  0  0  0  0  0  0  0  0  0  0  0
  120.2091  123.1787   86.1740 H   0  0  0  0  0  0  0  0  0  0  0  0
  120.9371  121.6014   87.9024 H   0  0  0  0  0  0  0  0  0  0  0  0
  1  2  3  0
  2  3  1  0
  3  4  2  0
  4  5  1  0
  5  6  2  0
  6  7  1  0
  7  8  1  0
  8  9  2  0
  8 10  1  0
 10 11  1  0
 10 12  1  0
 10 13  1  0
  6 14  1  0
 14 15  2  0
 15 16  1  0
 15  3  1  0
  4 17  1  0
  5 18  1  0
  7 19  1  0
 14 20  1  0
M  END
>  <loss>  (24) 
0.5596690773963928

>  <score>  (24) 
3.2090723514556885

$$$$
RNQZJZGVFTZVDW-UHFFFAOYSA-N
     RDKit          3D

 20 20  0  0  0  0  0  0  0  0999 V2000
  126.3540  121.2066   89.6134 N   0  0  0  0  0  0  0  0  0  0  0  0
  125.4825  121.4206   88.8774 C   0  0  0  0  0  0  0  0  0  0  0  0
  124.4417  121.7014   87.9325 C   0  0  0  0  0  0  0  0  0  0  0  0
  124.7903  122.2101   86.6762 C   0  0  0  0  0  0  0  0  0  0  0  0
  123.8009  122.4956   85.7295 C   0  0  0  0  0  0  0  0  0  0  0  0
  122.4480  122.2790   86.0194 C   0  0  0  0  0  0  0  0  0  0  0  0
  121.5214  122.5955   85.0039 N   0  0  0  0  0  0  0  0  0  0  0  0
  120.2930  123.2584   85.1327 C   0  0  0  0  0  0  0  0  0  0  0  0
  119.8877  123.7374   86.1916 O   0  0  0  0  0  0  0  0  0  0  0  0
  119.4765  123.3247   83.8125 C   0  0  0  0  0  0  0  0  0  0  0  0
  118.8013  121.6996   83.4958 Cl  0  0  0  0  0  0  0  0  0  0  0  0
  118.1640  124.5154   83.9158 Cl  0  0  0  0  0  0  0  0  0  0  0  0
  120.5883  123.7661   82.4818 Cl  0  0  0  0  0  0  0  0  0  0  0  0
  122.1026  121.7711   87.2737 C   0  0  0  0  0  0  0  0  0  0  0  0
  123.0927  121.4837   88.2255 C   0  0  0  0  0  0  0  0  0  0  0  0
  122.5824  120.8574   89.7550 Cl  0  0  0  0  0  0  0  0  0  0  0  0
  125.8482  122.3863   86.4318 H   0  0  0  0  0  0  0  0  0  0  0  0
  124.0888  122.8949   84.7458 H   0  0  0  0  0  0  0  0  0  0  0  0
  121.7792  122.3035   84.0504 H   0  0  0  0  0  0  0  0  0  0  0  0
  121.0446  121.5947   87.5177 H   0  0  0  0  0  0  0  0  0  0  0  0
  1  2  3  0
  2  3  1  0
  3  4  2  0
  4  5  1  0
  5  6  2  0
  6  7  1  0
  7  8  1  0
  8  9  2  0
  8 10  1  0
 10 11  1  0
 10 12  1  0
 10 13  1  0
  6 14  1  0
 14 15  2  0
 15 16  1  0
 15  3  1  0
  4 17  1  0
  5 18  1  0
  7 19  1  0
 14 20  1  0
M  END
>  <loss>  (25) 
0.5688443183898926

>  <score>  (25) 
3.242966413497925

$$$$
