RSBNAILPKCDZBJ-UHFFFAOYSA-N
     RDKit          3D

 29 29  0  0  0  0  0  0  0  0999 V2000
  127.7543  123.2484   85.6225 C   0  0  0  0  0  0  0  0  0  0  0  0
  126.6367  122.6681   84.7739 C   0  0  0  0  0  0  0  0  0  0  0  0
  126.0416  121.5455   85.4209 O   0  0  0  0  0  0  0  0  0  0  0  0
  125.0191  121.7241   86.3113 C   0  0  0  0  0  0  0  0  0  0  0  0
  125.1773  121.6978   87.7054 C   0  0  0  0  0  0  0  0  0  0  0  0
  124.0895  121.8569   88.5825 C   0  0  0  0  0  0  0  0  0  0  0  0
  124.3171  121.7023   89.9614 N   0  0  0  0  0  0  0  0  0  0  0  0
  122.7995  121.9349   88.0350 C   0  0  0  0  0  0  0  0  0  0  0  0
  121.6360  122.0098   88.8700 C   0  0  0  0  0  0  0  0  0  0  0  0
  120.7016  122.0926   89.5544 N   0  0  0  0  0  0  0  0  0  0  0  0
  122.6282  121.9619   86.6469 C   0  0  0  0  0  0  0  0  0  0  0  0
  123.7275  121.8858   85.7855 C   0  0  0  0  0  0  0  0  0  0  0  0
  123.3782  121.9199   84.4597 O   0  0  0  0  0  0  0  0  0  0  0  0
  123.1956  123.2135   83.8832 C   0  0  0  0  0  0  0  0  0  0  0  0
  123.3041  123.0676   82.3750 C   0  0  0  0  0  0  0  0  0  0  0  0
  127.5098  123.1215   86.6875 H   0  0  0  0  0  0  0  0  0  0  0  0
  128.6952  122.7250   85.3974 H   0  0  0  0  0  0  0  0  0  0  0  0
  127.8675  124.3192   85.3974 H   0  0  0  0  0  0  0  0  0  0  0  0
  125.8694  123.4394   84.6113 H   0  0  0  0  0  0  0  0  0  0  0  0
  127.0579  122.3391   83.8125 H   0  0  0  0  0  0  0  0  0  0  0  0
  126.1830  121.5482   88.1251 H   0  0  0  0  0  0  0  0  0  0  0  0
  123.5392  121.8130   90.6274 H   0  0  0  0  0  0  0  0  0  0  0  0
  125.2618  121.4783   90.3056 H   0  0  0  0  0  0  0  0  0  0  0  0
  121.6149  122.0441   86.2270 H   0  0  0  0  0  0  0  0  0  0  0  0
  122.2036  123.6062   84.1510 H   0  0  0  0  0  0  0  0  0  0  0  0
  123.9575  123.9129   84.2579 H   0  0  0  0  0  0  0  0  0  0  0  0
  123.9447  122.2061   82.1351 H   0  0  0  0  0  0  0  0  0  0  0  0
  122.3024  122.9096   81.9489 H   0  0  0  0  0  0  0  0  0  0  0  0
  123.7438  123.9814   81.9489 H   0  0  0  0  0  0  0  0  0  0  0  0
  1  2  1  0
  2  3  1  0
  3  4  1  0
  4  5  2  0
  5  6  1  0
  6  7  1  0
  6  8  2  0
  8  9  1  0
  9 10  3  0
  8 11  1  0
 11 12  2  0
 12 13  1  0
 13 14  1  0
 14 15  1  0
 12  4  1  0
  1 16  1  0
  1 17  1  0
  1 18  1  0
  2 19  1  0
  2 20  1  0
  5 21  1  0
  7 22  1  0
  7 23  1  0
 11 24  1  0
 14 25  1  0
 14 26  1  0
 15 27  1  0
 15 28  1  0
 15 29  1  0
M  END
>  <loss>  (1) 
0.5243244171142578

>  <score>  (1) 
4.518121242523193

$$$$
RSBNAILPKCDZBJ-UHFFFAOYSA-N
     RDKit          3D

 29 29  0  0  0  0  0  0  0  0999 V2000
  127.3769  123.5249   84.9034 C   0  0  0  0  0  0  0  0  0  0  0  0
  127.1560  122.1986   85.6084 C   0  0  0  0  0  0  0  0  0  0  0  0
  125.8535  121.7325   85.2683 O   0  0  0  0  0  0  0  0  0  0  0  0
  124.8783  121.7763   86.2335 C   0  0  0  0  0  0  0  0  0  0  0  0
  125.1234  121.7190   87.6119 C   0  0  0  0  0  0  0  0  0  0  0  0
  124.0735  121.7372   88.5430 C   0  0  0  0  0  0  0  0  0  0  0  0
  124.3944  121.7962   89.9103 N   0  0  0  0  0  0  0  0  0  0  0  0
  122.7641  121.9155   88.0654 C   0  0  0  0  0  0  0  0  0  0  0  0
  121.6529  122.0217   88.9667 C   0  0  0  0  0  0  0  0  0  0  0  0
  120.7502  122.0874   89.6941 N   0  0  0  0  0  0  0  0  0  0  0  0
  122.5083  121.9722   86.6860 C   0  0  0  0  0  0  0  0  0  0  0  0
  123.5562  121.8939   85.7663 C   0  0  0  0  0  0  0  0  0  0  0  0
  123.3996  121.9376   84.4041 O   0  0  0  0  0  0  0  0  0  0  0  0
  123.0848  123.1904   83.8028 C   0  0  0  0  0  0  0  0  0  0  0  0
  123.3233  123.0653   82.3087 C   0  0  0  0  0  0  0  0  0  0  0  0
  127.5093  124.3203   85.6517 H   0  0  0  0  0  0  0  0  0  0  0  0
  128.2766  123.4602   84.2739 H   0  0  0  0  0  0  0  0  0  0  0  0
  126.5047  123.7553   84.2739 H   0  0  0  0  0  0  0  0  0  0  0  0
  127.9113  121.4700   85.2788 H   0  0  0  0  0  0  0  0  0  0  0  0
  127.2452  122.3244   86.6975 H   0  0  0  0  0  0  0  0  0  0  0  0
  126.1611  121.6586   87.9720 H   0  0  0  0  0  0  0  0  0  0  0  0
  123.6437  121.8107   90.6154 H   0  0  0  0  0  0  0  0  0  0  0  0
  125.3803  121.8249   90.2072 H   0  0  0  0  0  0  0  0  0  0  0  0
  121.4740  122.0791   86.3269 H   0  0  0  0  0  0  0  0  0  0  0  0
  122.0309  123.4417   83.9930 H   0  0  0  0  0  0  0  0  0  0  0  0
  123.7148  123.9869   84.2255 H   0  0  0  0  0  0  0  0  0  0  0  0
  124.2848  122.5610   82.1319 H   0  0  0  0  0  0  0  0  0  0  0  0
  122.5118  122.4768   81.8559 H   0  0  0  0  0  0  0  0  0  0  0  0
  123.3462  124.0675   81.8559 H   0  0  0  0  0  0  0  0  0  0  0  0
  1  2  1  0
  2  3  1  0
  3  4  1  0
  4  5  2  0
  5  6  1  0
  6  7  1  0
  6  8  2  0
  8  9  1  0
  9 10  3  0
  8 11  1  0
 11 12  2  0
 12 13  1  0
 13 14  1  0
 14 15  1  0
 12  4  1  0
  1 16  1  0
  1 17  1  0
  1 18  1  0
  2 19  1  0
  2 20  1  0
  5 21  1  0
  7 22  1  0
  7 23  1  0
 11 24  1  0
 14 25  1  0
 14 26  1  0
 15 27  1  0
 15 28  1  0
 15 29  1  0
M  END
>  <loss>  (2) 
0.5249643921852112

>  <score>  (2) 
4.464999198913574

$$$$
RSBNAILPKCDZBJ-UHFFFAOYSA-N
     RDKit          3D

 29 29  0  0  0  0  0  0  0  0999 V2000
  127.3843  123.4694   84.8229 C   0  0  0  0  0  0  0  0  0  0  0  0
  127.0216  122.4327   85.8705 C   0  0  0  0  0  0  0  0  0  0  0  0
  125.9109  121.6760   85.3746 O   0  0  0  0  0  0  0  0  0  0  0  0
  124.8370  121.7768   86.2250 C   0  0  0  0  0  0  0  0  0  0  0  0
  125.1075  121.6799   87.5937 C   0  0  0  0  0  0  0  0  0  0  0  0
  124.0723  121.7075   88.5333 C   0  0  0  0  0  0  0  0  0  0  0  0
  124.4058  121.7446   89.8972 N   0  0  0  0  0  0  0  0  0  0  0  0
  122.7624  121.9152   88.0641 C   0  0  0  0  0  0  0  0  0  0  0  0
  121.6598  122.0304   88.9753 C   0  0  0  0  0  0  0  0  0  0  0  0
  120.7613  122.1062   89.7068 N   0  0  0  0  0  0  0  0  0  0  0  0
  122.4921  121.9870   86.6833 C   0  0  0  0  0  0  0  0  0  0  0  0
  123.5248  121.9028   85.7499 C   0  0  0  0  0  0  0  0  0  0  0  0
  123.3725  121.9292   84.3918 O   0  0  0  0  0  0  0  0  0  0  0  0
  123.0131  123.1449   83.7395 C   0  0  0  0  0  0  0  0  0  0  0  0
  123.4392  123.1279   82.2818 C   0  0  0  0  0  0  0  0  0  0  0  0
  127.7083  124.3955   85.3203 H   0  0  0  0  0  0  0  0  0  0  0  0
  128.2015  123.0854   84.1946 H   0  0  0  0  0  0  0  0  0  0  0  0
  126.5060  123.6786   84.1946 H   0  0  0  0  0  0  0  0  0  0  0  0
  127.8782  121.7660   86.0490 H   0  0  0  0  0  0  0  0  0  0  0  0
  126.7585  122.9225   86.8196 H   0  0  0  0  0  0  0  0  0  0  0  0
  126.1483  121.5805   87.9356 H   0  0  0  0  0  0  0  0  0  0  0  0
  123.6615  121.7654   90.6090 H   0  0  0  0  0  0  0  0  0  0  0  0
  125.3945  121.7509   90.1856 H   0  0  0  0  0  0  0  0  0  0  0  0
  121.4552  122.1107   86.3377 H   0  0  0  0  0  0  0  0  0  0  0  0
  121.9219  123.2730   83.7937 H   0  0  0  0  0  0  0  0  0  0  0  0
  123.5249  123.9776   84.2442 H   0  0  0  0  0  0  0  0  0  0  0  0
  124.5366  123.0843   82.2211 H   0  0  0  0  0  0  0  0  0  0  0  0
  123.0090  122.2462   81.7843 H   0  0  0  0  0  0  0  0  0  0  0  0
  123.0804  124.0411   81.7843 H   0  0  0  0  0  0  0  0  0  0  0  0
  1  2  1  0
  2  3  1  0
  3  4  1  0
  4  5  2  0
  5  6  1  0
  6  7  1  0
  6  8  2  0
  8  9  1  0
  9 10  3  0
  8 11  1  0
 11 12  2  0
 12 13  1  0
 13 14  1  0
 14 15  1  0
 12  4  1  0
  1 16  1  0
  1 17  1  0
  1 18  1  0
  2 19  1  0
  2 20  1  0
  5 21  1  0
  7 22  1  0
  7 23  1  0
 11 24  1  0
 14 25  1  0
 14 26  1  0
 15 27  1  0
 15 28  1  0
 15 29  1  0
M  END
>  <loss>  (3) 
0.5263412594795227

>  <score>  (3) 
4.428380012512207

$$$$
RSBNAILPKCDZBJ-UHFFFAOYSA-N
     RDKit          3D

 29 29  0  0  0  0  0  0  0  0999 V2000
  127.3805  123.4860   84.8311 C   0  0  0  0  0  0  0  0  0  0  0  0
  127.0467  122.4438   85.8829 C   0  0  0  0  0  0  0  0  0  0  0  0
  125.9342  121.6789   85.3973 O   0  0  0  0  0  0  0  0  0  0  0  0
  124.8261  121.7586   86.2039 C   0  0  0  0  0  0  0  0  0  0  0  0
  125.0965  121.7414   87.5788 C   0  0  0  0  0  0  0  0  0  0  0  0
  124.0715  121.8653   88.5229 C   0  0  0  0  0  0  0  0  0  0  0  0
  124.3889  121.7043   89.8825 N   0  0  0  0  0  0  0  0  0  0  0  0
  122.7481  121.9246   88.0515 C   0  0  0  0  0  0  0  0  0  0  0  0
  121.6390  121.9675   88.9606 C   0  0  0  0  0  0  0  0  0  0  0  0
  120.7378  122.0223   89.6904 N   0  0  0  0  0  0  0  0  0  0  0  0
  122.4768  121.9715   86.6703 C   0  0  0  0  0  0  0  0  0  0  0  0
  123.5134  121.9133   85.7358 C   0  0  0  0  0  0  0  0  0  0  0  0
  123.3374  121.9950   84.3811 O   0  0  0  0  0  0  0  0  0  0  0  0
  123.0735  123.2770   83.8154 C   0  0  0  0  0  0  0  0  0  0  0  0
  123.3804  123.2032   82.3298 C   0  0  0  0  0  0  0  0  0  0  0  0
  127.6804  124.4222   85.3248 H   0  0  0  0  0  0  0  0  0  0  0  0
  128.2069  123.1217   84.2032 H   0  0  0  0  0  0  0  0  0  0  0  0
  126.4962  123.6696   84.2032 H   0  0  0  0  0  0  0  0  0  0  0  0
  127.9122  121.7850   86.0461 H   0  0  0  0  0  0  0  0  0  0  0  0
  126.7960  122.9263   86.8391 H   0  0  0  0  0  0  0  0  0  0  0  0
  126.1353  121.6282   87.9225 H   0  0  0  0  0  0  0  0  0  0  0  0
  123.6522  121.7907   90.5971 H   0  0  0  0  0  0  0  0  0  0  0  0
  125.3583  121.4999   90.1643 H   0  0  0  0  0  0  0  0  0  0  0  0
  121.4363  122.0550   86.3234 H   0  0  0  0  0  0  0  0  0  0  0  0
  122.0165  123.5416   83.9660 H   0  0  0  0  0  0  0  0  0  0  0  0
  123.6963  124.0446   84.2979 H   0  0  0  0  0  0  0  0  0  0  0  0
  124.4409  122.9485   82.1867 H   0  0  0  0  0  0  0  0  0  0  0  0
  122.7516  122.4306   81.8634 H   0  0  0  0  0  0  0  0  0  0  0  0
  123.1711  124.1772   81.8634 H   0  0  0  0  0  0  0  0  0  0  0  0
  1  2  1  0
  2  3  1  0
  3  4  1  0
  4  5  2  0
  5  6  1  0
  6  7  1  0
  6  8  2  0
  8  9  1  0
  9 10  3  0
  8 11  1  0
 11 12  2  0
 12 13  1  0
 13 14  1  0
 14 15  1  0
 12  4  1  0
  1 16  1  0
  1 17  1  0
  1 18  1  0
  2 19  1  0
  2 20  1  0
  5 21  1  0
  7 22  1  0
  7 23  1  0
 11 24  1  0
 14 25  1  0
 14 26  1  0
 15 27  1  0
 15 28  1  0
 15 29  1  0
M  END
>  <loss>  (4) 
0.5242975950241089

>  <score>  (4) 
4.418038368225098

$$$$
RSBNAILPKCDZBJ-UHFFFAOYSA-N
     RDKit          3D

 29 29  0  0  0  0  0  0  0  0999 V2000
  127.8028  123.2819   85.6634 C   0  0  0  0  0  0  0  0  0  0  0  0
  126.5555  122.8194   84.9301 C   0  0  0  0  0  0  0  0  0  0  0  0
  126.1019  121.6161   85.5539 O   0  0  0  0  0  0  0  0  0  0  0  0
  124.9456  121.7328   86.2839 C   0  0  0  0  0  0  0  0  0  0  0  0
  125.1371  121.6296   87.6689 C   0  0  0  0  0  0  0  0  0  0  0  0
  124.0637  121.6832   88.5649 C   0  0  0  0  0  0  0  0  0  0  0  0
  124.3399  121.7107   89.9413 N   0  0  0  0  0  0  0  0  0  0  0  0
  122.7848  121.9281   88.0404 C   0  0  0  0  0  0  0  0  0  0  0  0
  121.6457  122.0787   88.9000 C   0  0  0  0  0  0  0  0  0  0  0  0
  120.7156  122.1832   89.5869 N   0  0  0  0  0  0  0  0  0  0  0  0
  122.5818  122.0027   86.6499 C   0  0  0  0  0  0  0  0  0  0  0  0
  123.6535  121.8843   85.7595 C   0  0  0  0  0  0  0  0  0  0  0  0
  123.5216  121.9009   84.3982 O   0  0  0  0  0  0  0  0  0  0  0  0
  123.1126  123.1152   83.7714 C   0  0  0  0  0  0  0  0  0  0  0  0
  123.4303  123.0036   82.2912 C   0  0  0  0  0  0  0  0  0  0  0  0
  127.6345  123.2195   86.7486 H   0  0  0  0  0  0  0  0  0  0  0  0
  128.6508  122.6384   85.3862 H   0  0  0  0  0  0  0  0  0  0  0  0
  128.0263  124.3226   85.3862 H   0  0  0  0  0  0  0  0  0  0  0  0
  125.7750  123.5918   84.9957 H   0  0  0  0  0  0  0  0  0  0  0  0
  126.7786  122.6406   83.8680 H   0  0  0  0  0  0  0  0  0  0  0  0
  126.1570  121.5034   88.0611 H   0  0  0  0  0  0  0  0  0  0  0  0
  123.5669  121.7501   90.6209 H   0  0  0  0  0  0  0  0  0  0  0  0
  125.3154  121.6915   90.2713 H   0  0  0  0  0  0  0  0  0  0  0  0
  121.5656  122.1562   86.2578 H   0  0  0  0  0  0  0  0  0  0  0  0
  122.0318  123.2632   83.9119 H   0  0  0  0  0  0  0  0  0  0  0  0
  123.6407  123.9726   84.2139 H   0  0  0  0  0  0  0  0  0  0  0  0
  124.4611  122.6415   82.1637 H   0  0  0  0  0  0  0  0  0  0  0  0
  122.7323  122.2968   81.8186 H   0  0  0  0  0  0  0  0  0  0  0  0
  123.3276  123.9916   81.8186 H   0  0  0  0  0  0  0  0  0  0  0  0
  1  2  1  0
  2  3  1  0
  3  4  1  0
  4  5  2  0
  5  6  1  0
  6  7  1  0
  6  8  2  0
  8  9  1  0
  9 10  3  0
  8 11  1  0
 11 12  2  0
 12 13  1  0
 13 14  1  0
 14 15  1  0
 12  4  1  0
  1 16  1  0
  1 17  1  0
  1 18  1  0
  2 19  1  0
  2 20  1  0
  5 21  1  0
  7 22  1  0
  7 23  1  0
 11 24  1  0
 14 25  1  0
 14 26  1  0
 15 27  1  0
 15 28  1  0
 15 29  1  0
M  END
>  <loss>  (5) 
0.5284723043441772

>  <score>  (5) 
4.4068989753723145

$$$$
RSBNAILPKCDZBJ-UHFFFAOYSA-N
     RDKit          3D

 29 29  0  0  0  0  0  0  0  0999 V2000
  127.0147  122.9090   83.6192 C   0  0  0  0  0  0  0  0  0  0  0  0
  126.4630  122.9491   85.0326 C   0  0  0  0  0  0  0  0  0  0  0  0
  125.9593  121.6450   85.3453 O   0  0  0  0  0  0  0  0  0  0  0  0
  124.9493  121.7248   86.2728 C   0  0  0  0  0  0  0  0  0  0  0  0
  125.3077  121.5327   87.6109 C   0  0  0  0  0  0  0  0  0  0  0  0
  124.3397  121.5326   88.6200 C   0  0  0  0  0  0  0  0  0  0  0  0
  124.7654  121.4726   89.9572 N   0  0  0  0  0  0  0  0  0  0  0  0
  123.0094  121.8102   88.2564 C   0  0  0  0  0  0  0  0  0  0  0  0
  121.9754  121.9014   89.2473 C   0  0  0  0  0  0  0  0  0  0  0  0
  121.1314  121.9584   90.0427 N   0  0  0  0  0  0  0  0  0  0  0  0
  122.6494  121.9780   86.9048 C   0  0  0  0  0  0  0  0  0  0  0  0
  123.6134  121.9214   85.8985 C   0  0  0  0  0  0  0  0  0  0  0  0
  123.3710  122.0388   84.5585 O   0  0  0  0  0  0  0  0  0  0  0  0
  122.5853  123.1234   84.0697 C   0  0  0  0  0  0  0  0  0  0  0  0
  121.4991  122.6295   83.1301 C   0  0  0  0  0  0  0  0  0  0  0  0
  128.1112  122.8294   83.6557 H   0  0  0  0  0  0  0  0  0  0  0  0
  126.6014  122.0385   83.0887 H   0  0  0  0  0  0  0  0  0  0  0  0
  126.7314  123.8301   83.0887 H   0  0  0  0  0  0  0  0  0  0  0  0
  127.2620  123.2203   85.7382 H   0  0  0  0  0  0  0  0  0  0  0  0
  125.6614  123.6984   85.1101 H   0  0  0  0  0  0  0  0  0  0  0  0
  126.3650  121.3796   87.8730 H   0  0  0  0  0  0  0  0  0  0  0  0
  124.0720  121.4712   90.7188 H   0  0  0  0  0  0  0  0  0  0  0  0
  125.7709  121.4299   90.1761 H   0  0  0  0  0  0  0  0  0  0  0  0
  121.5966  122.1555   86.6402 H   0  0  0  0  0  0  0  0  0  0  0  0
  122.1172  123.6403   84.9204 H   0  0  0  0  0  0  0  0  0  0  0  0
  123.2423  123.8097   83.5154 H   0  0  0  0  0  0  0  0  0  0  0  0
  120.6527  122.2448   83.7180 H   0  0  0  0  0  0  0  0  0  0  0  0
  121.1572  123.4607   82.4958 H   0  0  0  0  0  0  0  0  0  0  0  0
  121.9005  121.8255   82.4958 H   0  0  0  0  0  0  0  0  0  0  0  0
  1  2  1  0
  2  3  1  0
  3  4  1  0
  4  5  2  0
  5  6  1  0
  6  7  1  0
  6  8  2  0
  8  9  1  0
  9 10  3  0
  8 11  1  0
 11 12  2  0
 12 13  1  0
 13 14  1  0
 14 15  1  0
 12  4  1  0
  1 16  1  0
  1 17  1  0
  1 18  1  0
  2 19  1  0
  2 20  1  0
  5 21  1  0
  7 22  1  0
  7 23  1  0
 11 24  1  0
 14 25  1  0
 14 26  1  0
 15 27  1  0
 15 28  1  0
 15 29  1  0
M  END
>  <loss>  (6) 
0.5651742219924927

>  <score>  (6) 
4.38386869430542

$$$$
RSBNAILPKCDZBJ-UHFFFAOYSA-N
     RDKit          3D

 29 29  0  0  0  0  0  0  0  0999 V2000
  126.9694  122.9366   83.5340 C   0  0  0  0  0  0  0  0  0  0  0  0
  126.6382  122.8867   85.0148 C   0  0  0  0  0  0  0  0  0  0  0  0
  125.8757  121.7075   85.2544 O   0  0  0  0  0  0  0  0  0  0  0  0
  124.9721  121.7203   86.2878 C   0  0  0  0  0  0  0  0  0  0  0  0
  125.3091  121.5593   87.6383 C   0  0  0  0  0  0  0  0  0  0  0  0
  124.3275  121.5516   88.6414 C   0  0  0  0  0  0  0  0  0  0  0  0
  124.7442  121.5044   89.9831 N   0  0  0  0  0  0  0  0  0  0  0  0
  122.9968  121.8103   88.2716 C   0  0  0  0  0  0  0  0  0  0  0  0
  121.9558  121.8948   89.2553 C   0  0  0  0  0  0  0  0  0  0  0  0
  121.1090  121.9431   90.0482 N   0  0  0  0  0  0  0  0  0  0  0  0
  122.6490  121.9713   86.9209 C   0  0  0  0  0  0  0  0  0  0  0  0
  123.6269  121.9183   85.9253 C   0  0  0  0  0  0  0  0  0  0  0  0
  123.3787  122.0615   84.5837 O   0  0  0  0  0  0  0  0  0  0  0  0
  122.5754  123.1600   84.1615 C   0  0  0  0  0  0  0  0  0  0  0  0
  121.6006  122.6516   83.1146 C   0  0  0  0  0  0  0  0  0  0  0  0
  128.0497  123.0991   83.4052 H   0  0  0  0  0  0  0  0  0  0  0  0
  126.6829  121.9852   83.0620 H   0  0  0  0  0  0  0  0  0  0  0  0
  126.4156  123.7615   83.0620 H   0  0  0  0  0  0  0  0  0  0  0  0
  127.5663  122.8577   85.6045 H   0  0  0  0  0  0  0  0  0  0  0  0
  126.0660  123.7789   85.3093 H   0  0  0  0  0  0  0  0  0  0  0  0
  126.3657  121.4361   87.9184 H   0  0  0  0  0  0  0  0  0  0  0  0
  124.0451  121.4978   90.7395 H   0  0  0  0  0  0  0  0  0  0  0  0
  125.7485  121.4765   90.2098 H   0  0  0  0  0  0  0  0  0  0  0  0
  121.5978  122.1406   86.6446 H   0  0  0  0  0  0  0  0  0  0  0  0
  122.0221  123.5697   85.0194 H   0  0  0  0  0  0  0  0  0  0  0  0
  123.2069  123.9568   83.7415 H   0  0  0  0  0  0  0  0  0  0  0  0
  120.7311  122.1981   83.6128 H   0  0  0  0  0  0  0  0  0  0  0  0
  121.2669  123.4905   82.4862 H   0  0  0  0  0  0  0  0  0  0  0  0
  122.0976  121.8978   82.4862 H   0  0  0  0  0  0  0  0  0  0  0  0
  1  2  1  0
  2  3  1  0
  3  4  1  0
  4  5  2  0
  5  6  1  0
  6  7  1  0
  6  8  2  0
  8  9  1  0
  9 10  3  0
  8 11  1  0
 11 12  2  0
 12 13  1  0
 13 14  1  0
 14 15  1  0
 12  4  1  0
  1 16  1  0
  1 17  1  0
  1 18  1  0
  2 19  1  0
  2 20  1  0
  5 21  1  0
  7 22  1  0
  7 23  1  0
 11 24  1  0
 14 25  1  0
 14 26  1  0
 15 27  1  0
 15 28  1  0
 15 29  1  0
M  END
>  <loss>  (7) 
0.5685752034187317

>  <score>  (7) 
4.399416923522949

$$$$
RSBNAILPKCDZBJ-UHFFFAOYSA-N
     RDKit          3D

 29 29  0  0  0  0  0  0  0  0999 V2000
  127.3447  123.3401   84.3410 C   0  0  0  0  0  0  0  0  0  0  0  0
  126.0211  122.5948   84.3328 C   0  0  0  0  0  0  0  0  0  0  0  0
  126.0387  121.6596   85.4133 O   0  0  0  0  0  0  0  0  0  0  0  0
  124.9697  121.7328   86.2709 C   0  0  0  0  0  0  0  0  0  0  0  0
  125.3101  121.5452   87.6179 C   0  0  0  0  0  0  0  0  0  0  0  0
  124.3412  121.5452   88.6274 C   0  0  0  0  0  0  0  0  0  0  0  0
  124.7659  121.4885   89.9645 N   0  0  0  0  0  0  0  0  0  0  0  0
  123.0147  121.8230   88.2614 C   0  0  0  0  0  0  0  0  0  0  0  0
  121.9772  121.9221   89.2478 C   0  0  0  0  0  0  0  0  0  0  0  0
  121.1283  121.9856   90.0373 N   0  0  0  0  0  0  0  0  0  0  0  0
  122.6620  121.9823   86.9085 C   0  0  0  0  0  0  0  0  0  0  0  0
  123.6294  121.9173   85.9008 C   0  0  0  0  0  0  0  0  0  0  0  0
  123.3501  122.0169   84.5656 O   0  0  0  0  0  0  0  0  0  0  0  0
  122.5630  123.1190   84.1180 C   0  0  0  0  0  0  0  0  0  0  0  0
  121.5976  122.6034   83.0660 C   0  0  0  0  0  0  0  0  0  0  0  0
  127.6593  123.5173   85.3801 H   0  0  0  0  0  0  0  0  0  0  0  0
  128.1073  122.7388   83.8245 H   0  0  0  0  0  0  0  0  0  0  0  0
  127.2259  124.3040   83.8245 H   0  0  0  0  0  0  0  0  0  0  0  0
  125.1913  123.3046   84.4659 H   0  0  0  0  0  0  0  0  0  0  0  0
  125.8807  122.0723   83.3750 H   0  0  0  0  0  0  0  0  0  0  0  0
  126.3657  121.3943   87.8881 H   0  0  0  0  0  0  0  0  0  0  0  0
  124.0719  121.4873   90.7256 H   0  0  0  0  0  0  0  0  0  0  0  0
  125.7714  121.4482   90.1842 H   0  0  0  0  0  0  0  0  0  0  0  0
  121.6104  122.1605   86.6397 H   0  0  0  0  0  0  0  0  0  0  0  0
  122.0027  123.5462   84.9627 H   0  0  0  0  0  0  0  0  0  0  0  0
  123.2070  123.9046   83.6960 H   0  0  0  0  0  0  0  0  0  0  0  0
  120.7305  122.1402   83.5597 H   0  0  0  0  0  0  0  0  0  0  0  0
  121.2582  123.4403   82.4381 H   0  0  0  0  0  0  0  0  0  0  0  0
  122.1045  121.8559   82.4381 H   0  0  0  0  0  0  0  0  0  0  0  0
  1  2  1  0
  2  3  1  0
  3  4  1  0
  4  5  2  0
  5  6  1  0
  6  7  1  0
  6  8  2  0
  8  9  1  0
  9 10  3  0
  8 11  1  0
 11 12  2  0
 12 13  1  0
 13 14  1  0
 14 15  1  0
 12  4  1  0
  1 16  1  0
  1 17  1  0
  1 18  1  0
  2 19  1  0
  2 20  1  0
  5 21  1  0
  7 22  1  0
  7 23  1  0
 11 24  1  0
 14 25  1  0
 14 26  1  0
 15 27  1  0
 15 28  1  0
 15 29  1  0
M  END
>  <loss>  (8) 
0.5648368000984192

>  <score>  (8) 
4.356949806213379

$$$$
RSBNAILPKCDZBJ-UHFFFAOYSA-N
     RDKit          3D

 29 29  0  0  0  0  0  0  0  0999 V2000
  126.9373  122.9336   83.5951 C   0  0  0  0  0  0  0  0  0  0  0  0
  126.4631  122.9429   85.0369 C   0  0  0  0  0  0  0  0  0  0  0  0
  125.9474  121.6409   85.3388 O   0  0  0  0  0  0  0  0  0  0  0  0
  124.9356  121.7227   86.2641 C   0  0  0  0  0  0  0  0  0  0  0  0
  125.2917  121.5359   87.6036 C   0  0  0  0  0  0  0  0  0  0  0  0
  124.3219  121.5381   88.6108 C   0  0  0  0  0  0  0  0  0  0  0  0
  124.7451  121.4835   89.9490 N   0  0  0  0  0  0  0  0  0  0  0  0
  122.9918  121.8125   88.2438 C   0  0  0  0  0  0  0  0  0  0  0  0
  121.9558  121.9058   89.2324 C   0  0  0  0  0  0  0  0  0  0  0  0
  121.1103  121.9645   90.0260 N   0  0  0  0  0  0  0  0  0  0  0  0
  122.6342  121.9748   86.8908 C   0  0  0  0  0  0  0  0  0  0  0  0
  123.6001  121.9159   85.8866 C   0  0  0  0  0  0  0  0  0  0  0  0
  123.3601  122.0281   84.5457 O   0  0  0  0  0  0  0  0  0  0  0  0
  122.5819  123.1153   84.0505 C   0  0  0  0  0  0  0  0  0  0  0  0
  121.4832  122.6221   83.1251 C   0  0  0  0  0  0  0  0  0  0  0  0
  128.0369  122.9121   83.5709 H   0  0  0  0  0  0  0  0  0  0  0  0
  126.5418  122.0430   83.0848 H   0  0  0  0  0  0  0  0  0  0  0  0
  126.5770  123.8390   83.0848 H   0  0  0  0  0  0  0  0  0  0  0  0
  127.3047  123.1759   85.7058 H   0  0  0  0  0  0  0  0  0  0  0  0
  125.6840  123.7062   85.1793 H   0  0  0  0  0  0  0  0  0  0  0  0
  126.3488  121.3853   87.8682 H   0  0  0  0  0  0  0  0  0  0  0  0
  124.0503  121.4840   90.7093 H   0  0  0  0  0  0  0  0  0  0  0  0
  125.7503  121.4431   90.1700 H   0  0  0  0  0  0  0  0  0  0  0  0
  121.5816  122.1499   86.6236 H   0  0  0  0  0  0  0  0  0  0  0  0
  122.1259  123.6468   84.8988 H   0  0  0  0  0  0  0  0  0  0  0  0
  123.2417  123.7882   83.4832 H   0  0  0  0  0  0  0  0  0  0  0  0
  120.6415  122.2443   83.7240 H   0  0  0  0  0  0  0  0  0  0  0  0
  121.1385  123.4519   82.4905 H   0  0  0  0  0  0  0  0  0  0  0  0
  121.8740  121.8131   82.4905 H   0  0  0  0  0  0  0  0  0  0  0  0
  1  2  1  0
  2  3  1  0
  3  4  1  0
  4  5  2  0
  5  6  1  0
  6  7  1  0
  6  8  2  0
  8  9  1  0
  9 10  3  0
  8 11  1  0
 11 12  2  0
 12 13  1  0
 13 14  1  0
 14 15  1  0
 12  4  1  0
  1 16  1  0
  1 17  1  0
  1 18  1  0
  2 19  1  0
  2 20  1  0
  5 21  1  0
  7 22  1  0
  7 23  1  0
 11 24  1  0
 14 25  1  0
 14 26  1  0
 15 27  1  0
 15 28  1  0
 15 29  1  0
M  END
>  <loss>  (9) 
0.566490113735199

>  <score>  (9) 
4.358277797698975

$$$$
RSBNAILPKCDZBJ-UHFFFAOYSA-N
     RDKit          3D

 29 29  0  0  0  0  0  0  0  0999 V2000
  127.2753  123.4286   84.3906 C   0  0  0  0  0  0  0  0  0  0  0  0
  126.0374  122.5533   84.2961 C   0  0  0  0  0  0  0  0  0  0  0  0
  126.0570  121.6468   85.4008 O   0  0  0  0  0  0  0  0  0  0  0  0
  124.9814  121.7313   86.2490 C   0  0  0  0  0  0  0  0  0  0  0  0
  125.3083  121.5424   87.5992 C   0  0  0  0  0  0  0  0  0  0  0  0
  124.3308  121.5529   88.6002 C   0  0  0  0  0  0  0  0  0  0  0  0
  124.7433  121.4940   89.9410 N   0  0  0  0  0  0  0  0  0  0  0  0
  123.0102  121.8427   88.2224 C   0  0  0  0  0  0  0  0  0  0  0  0
  121.9652  121.9530   89.1997 C   0  0  0  0  0  0  0  0  0  0  0  0
  121.1101  122.0256   89.9817 N   0  0  0  0  0  0  0  0  0  0  0  0
  122.6708  122.0035   86.8663 C   0  0  0  0  0  0  0  0  0  0  0  0
  123.6461  121.9280   85.8671 C   0  0  0  0  0  0  0  0  0  0  0  0
  123.3793  122.0284   84.5294 O   0  0  0  0  0  0  0  0  0  0  0  0
  122.5532  123.1015   84.0815 C   0  0  0  0  0  0  0  0  0  0  0  0
  121.5905  122.5460   83.0474 C   0  0  0  0  0  0  0  0  0  0  0  0
  127.5214  123.6026   85.4485 H   0  0  0  0  0  0  0  0  0  0  0  0
  128.1190  122.9251   83.8959 H   0  0  0  0  0  0  0  0  0  0  0  0
  127.0819  124.3918   83.8959 H   0  0  0  0  0  0  0  0  0  0  0  0
  125.1332  123.1781   84.3410 H   0  0  0  0  0  0  0  0  0  0  0  0
  126.0302  121.9999   83.3454 H   0  0  0  0  0  0  0  0  0  0  0  0
  126.3601  121.3818   87.8787 H   0  0  0  0  0  0  0  0  0  0  0  0
  124.0428  121.5004   90.6961 H   0  0  0  0  0  0  0  0  0  0  0  0
  125.7464  121.4445   90.1695 H   0  0  0  0  0  0  0  0  0  0  0  0
  121.6232  122.1913   86.5882 H   0  0  0  0  0  0  0  0  0  0  0  0
  121.9909  123.5198   84.9293 H   0  0  0  0  0  0  0  0  0  0  0  0
  123.1673  123.9021   83.6435 H   0  0  0  0  0  0  0  0  0  0  0  0
  120.7461  122.0588   83.5569 H   0  0  0  0  0  0  0  0  0  0  0  0
  121.2151  123.3663   82.4180 H   0  0  0  0  0  0  0  0  0  0  0  0
  122.1129  121.8105   82.4180 H   0  0  0  0  0  0  0  0  0  0  0  0
  1  2  1  0
  2  3  1  0
  3  4  1  0
  4  5  2  0
  5  6  1  0
  6  7  1  0
  6  8  2  0
  8  9  1  0
  9 10  3  0
  8 11  1  0
 11 12  2  0
 12 13  1  0
 13 14  1  0
 14 15  1  0
 12  4  1  0
  1 16  1  0
  1 17  1  0
  1 18  1  0
  2 19  1  0
  2 20  1  0
  5 21  1  0
  7 22  1  0
  7 23  1  0
 11 24  1  0
 14 25  1  0
 14 26  1  0
 15 27  1  0
 15 28  1  0
 15 29  1  0
M  END
>  <loss>  (10) 
0.5651630759239197

>  <score>  (10) 
4.319281101226807

$$$$
RSBNAILPKCDZBJ-UHFFFAOYSA-N
     RDKit          3D

 29 29  0  0  0  0  0  0  0  0999 V2000
  126.8904  123.0069   83.5249 C   0  0  0  0  0  0  0  0  0  0  0  0
  126.6728  122.8527   85.0195 C   0  0  0  0  0  0  0  0  0  0  0  0
  125.8696  121.6949   85.2288 O   0  0  0  0  0  0  0  0  0  0  0  0
  124.9665  121.7125   86.2625 C   0  0  0  0  0  0  0  0  0  0  0  0
  125.3036  121.5539   87.6133 C   0  0  0  0  0  0  0  0  0  0  0  0
  124.3225  121.5512   88.6167 C   0  0  0  0  0  0  0  0  0  0  0  0
  124.7396  121.5063   89.9584 N   0  0  0  0  0  0  0  0  0  0  0  0
  122.9923  121.8121   88.2469 C   0  0  0  0  0  0  0  0  0  0  0  0
  121.9518  121.9016   89.2308 C   0  0  0  0  0  0  0  0  0  0  0  0
  121.1054  121.9539   90.0239 N   0  0  0  0  0  0  0  0  0  0  0  0
  122.6443  121.9707   86.8959 C   0  0  0  0  0  0  0  0  0  0  0  0
  123.6216  121.9128   85.9001 C   0  0  0  0  0  0  0  0  0  0  0  0
  123.3732  122.0534   84.5582 O   0  0  0  0  0  0  0  0  0  0  0  0
  122.5568  123.1419   84.1354 C   0  0  0  0  0  0  0  0  0  0  0  0
  121.6005  122.6253   83.0754 C   0  0  0  0  0  0  0  0  0  0  0  0
  127.7762  123.6342   83.3461 H   0  0  0  0  0  0  0  0  0  0  0  0
  127.0455  122.0161   83.0728 H   0  0  0  0  0  0  0  0  0  0  0  0
  126.0073  123.4820   83.0728 H   0  0  0  0  0  0  0  0  0  0  0  0
  127.6410  122.7326   85.5275 H   0  0  0  0  0  0  0  0  0  0  0  0
  126.1734  123.7439   85.4274 H   0  0  0  0  0  0  0  0  0  0  0  0
  126.3600  121.4289   87.8932 H   0  0  0  0  0  0  0  0  0  0  0  0
  124.0408  121.5032   90.7151 H   0  0  0  0  0  0  0  0  0  0  0  0
  125.7440  121.4764   90.1848 H   0  0  0  0  0  0  0  0  0  0  0  0
  121.5933  122.1418   86.6197 H   0  0  0  0  0  0  0  0  0  0  0  0
  121.9886  123.5369   84.9905 H   0  0  0  0  0  0  0  0  0  0  0  0
  123.1796  123.9514   83.7271 H   0  0  0  0  0  0  0  0  0  0  0  0
  120.7325  122.1564   83.5619 H   0  0  0  0  0  0  0  0  0  0  0  0
  121.2612  123.4629   82.4482 H   0  0  0  0  0  0  0  0  0  0  0  0
  122.1150  121.8824   82.4482 H   0  0  0  0  0  0  0  0  0  0  0  0
  1  2  1  0
  2  3  1  0
  3  4  1  0
  4  5  2  0
  5  6  1  0
  6  7  1  0
  6  8  2  0
  8  9  1  0
  9 10  3  0
  8 11  1  0
 11 12  2  0
 12 13  1  0
 13 14  1  0
 14 15  1  0
 12  4  1  0
  1 16  1  0
  1 17  1  0
  1 18  1  0
  2 19  1  0
  2 20  1  0
  5 21  1  0
  7 22  1  0
  7 23  1  0
 11 24  1  0
 14 25  1  0
 14 26  1  0
 15 27  1  0
 15 28  1  0
 15 29  1  0
M  END
>  <loss>  (11) 
0.569413423538208

>  <score>  (11) 
4.28517484664917

$$$$
RSBNAILPKCDZBJ-UHFFFAOYSA-N
     RDKit          3D

 29 29  0  0  0  0  0  0  0  0999 V2000
  127.1021  123.0836   83.7591 C   0  0  0  0  0  0  0  0  0  0  0  0
  126.7780  122.6800   85.1859 C   0  0  0  0  0  0  0  0  0  0  0  0
  125.8532  121.5871   85.1347 O   0  0  0  0  0  0  0  0  0  0  0  0
  124.9158  121.6980   86.1325 C   0  0  0  0  0  0  0  0  0  0  0  0
  125.3681  121.5165   87.4434 C   0  0  0  0  0  0  0  0  0  0  0  0
  124.4772  121.5477   88.5206 C   0  0  0  0  0  0  0  0  0  0  0  0
  124.9989  121.4969   89.8237 N   0  0  0  0  0  0  0  0  0  0  0  0
  123.1289  121.8456   88.2516 C   0  0  0  0  0  0  0  0  0  0  0  0
  122.1723  121.9691   89.3142 C   0  0  0  0  0  0  0  0  0  0  0  0
  121.3902  122.0522   90.1684 N   0  0  0  0  0  0  0  0  0  0  0  0
  122.6735  122.0026   86.9277 C   0  0  0  0  0  0  0  0  0  0  0  0
  123.5597  121.9148   85.8544 C   0  0  0  0  0  0  0  0  0  0  0  0
  123.2215  122.0194   84.5342 O   0  0  0  0  0  0  0  0  0  0  0  0
  122.5755  123.1969   84.0561 C   0  0  0  0  0  0  0  0  0  0  0  0
  121.3863  122.8481   83.1782 C   0  0  0  0  0  0  0  0  0  0  0  0
  127.7909  123.9412   83.7680 H   0  0  0  0  0  0  0  0  0  0  0  0
  127.5754  122.2386   83.2375 H   0  0  0  0  0  0  0  0  0  0  0  0
  126.1749  123.3634   83.2375 H   0  0  0  0  0  0  0  0  0  0  0  0
  127.6968  122.3683   85.7041 H   0  0  0  0  0  0  0  0  0  0  0  0
  126.3401  123.5273   85.7339 H   0  0  0  0  0  0  0  0  0  0  0  0
  126.4389  121.3469   87.6294 H   0  0  0  0  0  0  0  0  0  0  0  0
  124.3634  121.5185   90.6340 H   0  0  0  0  0  0  0  0  0  0  0  0
  126.0169  121.4381   89.9689 H   0  0  0  0  0  0  0  0  0  0  0  0
  121.6074  122.1965   86.7384 H   0  0  0  0  0  0  0  0  0  0  0  0
  122.2269  123.7896   84.9147 H   0  0  0  0  0  0  0  0  0  0  0  0
  123.2961  123.7728   83.4569 H   0  0  0  0  0  0  0  0  0  0  0  0
  120.5239  122.5951   83.8125 H   0  0  0  0  0  0  0  0  0  0  0  0
  121.1340  123.7100   82.5431 H   0  0  0  0  0  0  0  0  0  0  0  0
  121.6397  121.9864   82.5431 H   0  0  0  0  0  0  0  0  0  0  0  0
  1  2  1  0
  2  3  1  0
  3  4  1  0
  4  5  2  0
  5  6  1  0
  6  7  1  0
  6  8  2  0
  8  9  1  0
  9 10  3  0
  8 11  1  0
 11 12  2  0
 12 13  1  0
 13 14  1  0
 14 15  1  0
 12  4  1  0
  1 16  1  0
  1 17  1  0
  1 18  1  0
  2 19  1  0
  2 20  1  0
  5 21  1  0
  7 22  1  0
  7 23  1  0
 11 24  1  0
 14 25  1  0
 14 26  1  0
 15 27  1  0
 15 28  1  0
 15 29  1  0
M  END
>  <loss>  (12) 
0.5484609007835388

>  <score>  (12) 
4.127206802368164

$$$$
RSBNAILPKCDZBJ-UHFFFAOYSA-N
     RDKit          3D

 29 29  0  0  0  0  0  0  0  0999 V2000
  127.0642  123.2028   83.7416 C   0  0  0  0  0  0  0  0  0  0  0  0
  126.9521  122.4610   85.0615 C   0  0  0  0  0  0  0  0  0  0  0  0
  125.7554  121.6889   85.0306 O   0  0  0  0  0  0  0  0  0  0  0  0
  124.9373  121.7193   86.1327 C   0  0  0  0  0  0  0  0  0  0  0  0
  125.3796  121.5657   87.4534 C   0  0  0  0  0  0  0  0  0  0  0  0
  124.4812  121.5763   88.5315 C   0  0  0  0  0  0  0  0  0  0  0  0
  125.0032  121.5357   89.8361 N   0  0  0  0  0  0  0  0  0  0  0  0
  123.1278  121.8455   88.2668 C   0  0  0  0  0  0  0  0  0  0  0  0
  122.1695  121.9486   89.3296 C   0  0  0  0  0  0  0  0  0  0  0  0
  121.3892  122.0120   90.1871 N   0  0  0  0  0  0  0  0  0  0  0  0
  122.6747  121.9991   86.9468 C   0  0  0  0  0  0  0  0  0  0  0  0
  123.5694  121.9280   85.8769 C   0  0  0  0  0  0  0  0  0  0  0  0
  123.2162  122.0629   84.5581 O   0  0  0  0  0  0  0  0  0  0  0  0
  122.5580  123.2613   84.1569 C   0  0  0  0  0  0  0  0  0  0  0  0
  121.4821  122.8902   83.1522 C   0  0  0  0  0  0  0  0  0  0  0  0
  127.2261  124.2734   83.9352 H   0  0  0  0  0  0  0  0  0  0  0  0
  127.9120  122.8019   83.1666 H   0  0  0  0  0  0  0  0  0  0  0  0
  126.1359  123.0704   83.1666 H   0  0  0  0  0  0  0  0  0  0  0  0
  127.8206  121.7989   85.1929 H   0  0  0  0  0  0  0  0  0  0  0  0
  126.9268  123.1730   85.8997 H   0  0  0  0  0  0  0  0  0  0  0  0
  126.4539  121.4341   87.6493 H   0  0  0  0  0  0  0  0  0  0  0  0
  124.3668  121.5424   90.6459 H   0  0  0  0  0  0  0  0  0  0  0  0
  126.0222  121.4993   89.9822 H   0  0  0  0  0  0  0  0  0  0  0  0
  121.6065  122.1769   86.7538 H   0  0  0  0  0  0  0  0  0  0  0  0
  122.1008  123.7471   85.0316 H   0  0  0  0  0  0  0  0  0  0  0  0
  123.2776  123.9607   83.7063 H   0  0  0  0  0  0  0  0  0  0  0  0
  120.5734  122.5768   83.6870 H   0  0  0  0  0  0  0  0  0  0  0  0
  121.2538  123.7615   82.5208 H   0  0  0  0  0  0  0  0  0  0  0  0
  121.8396  122.0634   82.5208 H   0  0  0  0  0  0  0  0  0  0  0  0
  1  2  1  0
  2  3  1  0
  3  4  1  0
  4  5  2  0
  5  6  1  0
  6  7  1  0
  6  8  2  0
  8  9  1  0
  9 10  3  0
  8 11  1  0
 11 12  2  0
 12 13  1  0
 13 14  1  0
 14 15  1  0
 12  4  1  0
  1 16  1  0
  1 17  1  0
  1 18  1  0
  2 19  1  0
  2 20  1  0
  5 21  1  0
  7 22  1  0
  7 23  1  0
 11 24  1  0
 14 25  1  0
 14 26  1  0
 15 27  1  0
 15 28  1  0
 15 29  1  0
M  END
>  <loss>  (13) 
0.5493937134742737

>  <score>  (13) 
4.0874433517456055

$$$$
RSBNAILPKCDZBJ-UHFFFAOYSA-N
     RDKit          3D

 29 29  0  0  0  0  0  0  0  0999 V2000
  127.0395  122.8147   83.4137 C   0  0  0  0  0  0  0  0  0  0  0  0
  126.5848  122.7833   84.8614 C   0  0  0  0  0  0  0  0  0  0  0  0
  125.8986  121.5450   85.0802 O   0  0  0  0  0  0  0  0  0  0  0  0
  125.0204  121.6563   86.1305 C   0  0  0  0  0  0  0  0  0  0  0  0
  125.5535  121.5053   87.4146 C   0  0  0  0  0  0  0  0  0  0  0  0
  124.7280  121.5391   88.5427 C   0  0  0  0  0  0  0  0  0  0  0  0
  125.3274  121.5200   89.8128 N   0  0  0  0  0  0  0  0  0  0  0  0
  123.3607  121.8084   88.3503 C   0  0  0  0  0  0  0  0  0  0  0  0
  122.4671  121.9331   89.4663 C   0  0  0  0  0  0  0  0  0  0  0  0
  121.7360  122.0169   90.3644 N   0  0  0  0  0  0  0  0  0  0  0  0
  122.8243  121.9346   87.0538 C   0  0  0  0  0  0  0  0  0  0  0  0
  123.6463  121.8442   85.9308 C   0  0  0  0  0  0  0  0  0  0  0  0
  123.2280  121.9201   84.6318 O   0  0  0  0  0  0  0  0  0  0  0  0
  122.6762  123.1358   84.1317 C   0  0  0  0  0  0  0  0  0  0  0  0
  121.1705  123.0239   83.9672 C   0  0  0  0  0  0  0  0  0  0  0  0
  128.1362  122.8906   83.3753 H   0  0  0  0  0  0  0  0  0  0  0  0
  126.7179  121.8922   82.9082 H   0  0  0  0  0  0  0  0  0  0  0  0
  126.5939  123.6842   82.9082 H   0  0  0  0  0  0  0  0  0  0  0  0
  127.4568  122.8503   85.5286 H   0  0  0  0  0  0  0  0  0  0  0  0
  125.9191  123.6330   85.0727 H   0  0  0  0  0  0  0  0  0  0  0  0
  126.6365  121.3580   87.5388 H   0  0  0  0  0  0  0  0  0  0  0  0
  124.7412  121.5442   90.6594 H   0  0  0  0  0  0  0  0  0  0  0  0
  126.3532  121.4818   89.8977 H   0  0  0  0  0  0  0  0  0  0  0  0
  121.7454  122.1063   86.9258 H   0  0  0  0  0  0  0  0  0  0  0  0
  122.9014  123.9497   84.8366 H   0  0  0  0  0  0  0  0  0  0  0  0
  123.1214  123.3436   83.1475 H   0  0  0  0  0  0  0  0  0  0  0  0
  120.6950  122.9885   84.9585 H   0  0  0  0  0  0  0  0  0  0  0  0
  120.7964  123.8967   83.4120 H   0  0  0  0  0  0  0  0  0  0  0  0
  120.9296  122.1054   83.4120 H   0  0  0  0  0  0  0  0  0  0  0  0
  1  2  1  0
  2  3  1  0
  3  4  1  0
  4  5  2  0
  5  6  1  0
  6  7  1  0
  6  8  2  0
  8  9  1  0
  9 10  3  0
  8 11  1  0
 11 12  2  0
 12 13  1  0
 13 14  1  0
 14 15  1  0
 12  4  1  0
  1 16  1  0
  1 17  1  0
  1 18  1  0
  2 19  1  0
  2 20  1  0
  5 21  1  0
  7 22  1  0
  7 23  1  0
 11 24  1  0
 14 25  1  0
 14 26  1  0
 15 27  1  0
 15 28  1  0
 15 29  1  0
M  END
>  <loss>  (14) 
0.5857704281806946

>  <score>  (14) 
4.216829776763916

$$$$
RSBNAILPKCDZBJ-UHFFFAOYSA-N
     RDKit          3D

 29 29  0  0  0  0  0  0  0  0999 V2000
  127.4660  123.1693   84.2263 C   0  0  0  0  0  0  0  0  0  0  0  0
  126.0434  122.6367   84.2298 C   0  0  0  0  0  0  0  0  0  0  0  0
  125.9891  121.5396   85.1440 O   0  0  0  0  0  0  0  0  0  0  0  0
  125.0439  121.6458   86.1334 C   0  0  0  0  0  0  0  0  0  0  0  0
  125.5571  121.4800   87.4275 C   0  0  0  0  0  0  0  0  0  0  0  0
  124.7303  121.5145   88.5557 C   0  0  0  0  0  0  0  0  0  0  0  0
  125.3273  121.4781   89.8260 N   0  0  0  0  0  0  0  0  0  0  0  0
  123.3705  121.8048   88.3621 C   0  0  0  0  0  0  0  0  0  0  0  0
  122.4739  121.9390   89.4744 C   0  0  0  0  0  0  0  0  0  0  0  0
  121.7377  122.0308   90.3674 N   0  0  0  0  0  0  0  0  0  0  0  0
  122.8440  121.9424   87.0644 C   0  0  0  0  0  0  0  0  0  0  0  0
  123.6687  121.8430   85.9396 C   0  0  0  0  0  0  0  0  0  0  0  0
  123.2165  121.9202   84.6510 O   0  0  0  0  0  0  0  0  0  0  0  0
  122.6480  123.1498   84.2045 C   0  0  0  0  0  0  0  0  0  0  0  0
  121.1732  122.9095   83.9369 C   0  0  0  0  0  0  0  0  0  0  0  0
  127.8115  123.2987   85.2626 H   0  0  0  0  0  0  0  0  0  0  0  0
  128.1232  122.4564   83.7069 H   0  0  0  0  0  0  0  0  0  0  0  0
  127.4933  124.1386   83.7069 H   0  0  0  0  0  0  0  0  0  0  0  0
  125.3490  123.4267   84.5519 H   0  0  0  0  0  0  0  0  0  0  0  0
  125.7534  122.3100   83.2203 H   0  0  0  0  0  0  0  0  0  0  0  0
  126.6372  121.3187   87.5592 H   0  0  0  0  0  0  0  0  0  0  0  0
  124.7402  121.5023   90.6719 H   0  0  0  0  0  0  0  0  0  0  0  0
  126.3525  121.4271   89.9120 H   0  0  0  0  0  0  0  0  0  0  0  0
  121.7683  122.1309   86.9330 H   0  0  0  0  0  0  0  0  0  0  0  0
  122.7666  123.9204   84.9805 H   0  0  0  0  0  0  0  0  0  0  0  0
  123.1526  123.4968   83.2908 H   0  0  0  0  0  0  0  0  0  0  0  0
  120.6365  122.8220   84.8930 H   0  0  0  0  0  0  0  0  0  0  0  0
  120.7628  123.7526   83.3618 H   0  0  0  0  0  0  0  0  0  0  0  0
  121.0517  121.9797   83.3618 H   0  0  0  0  0  0  0  0  0  0  0  0
  1  2  1  0
  2  3  1  0
  3  4  1  0
  4  5  2  0
  5  6  1  0
  6  7  1  0
  6  8  2  0
  8  9  1  0
  9 10  3  0
  8 11  1  0
 11 12  2  0
 12 13  1  0
 13 14  1  0
 14 15  1  0
 12  4  1  0
  1 16  1  0
  1 17  1  0
  1 18  1  0
  2 19  1  0
  2 20  1  0
  5 21  1  0
  7 22  1  0
  7 23  1  0
 11 24  1  0
 14 25  1  0
 14 26  1  0
 15 27  1  0
 15 28  1  0
 15 29  1  0
M  END
>  <loss>  (15) 
0.593837559223175

>  <score>  (15) 
4.2162346839904785

$$$$
RSBNAILPKCDZBJ-UHFFFAOYSA-N
     RDKit          3D

 29 29  0  0  0  0  0  0  0  0999 V2000
  126.9959  122.8136   83.2822 C   0  0  0  0  0  0  0  0  0  0  0  0
  126.7177  122.7634   84.7738 C   0  0  0  0  0  0  0  0  0  0  0  0
  125.8516  121.6599   85.0217 O   0  0  0  0  0  0  0  0  0  0  0  0
  125.0788  121.6863   86.1560 C   0  0  0  0  0  0  0  0  0  0  0  0
  125.5733  121.5228   87.4568 C   0  0  0  0  0  0  0  0  0  0  0  0
  124.7192  121.5297   88.5704 C   0  0  0  0  0  0  0  0  0  0  0  0
  125.2933  121.4791   89.8526 N   0  0  0  0  0  0  0  0  0  0  0  0
  123.3572  121.8054   88.3622 C   0  0  0  0  0  0  0  0  0  0  0  0
  122.4430  121.9052   89.4634 C   0  0  0  0  0  0  0  0  0  0  0  0
  121.6981  121.9659   90.3520 N   0  0  0  0  0  0  0  0  0  0  0  0
  122.8519  121.9689   87.0625 C   0  0  0  0  0  0  0  0  0  0  0  0
  123.7024  121.9014   85.9570 C   0  0  0  0  0  0  0  0  0  0  0  0
  123.2969  122.0459   84.6543 O   0  0  0  0  0  0  0  0  0  0  0  0
  121.9407  122.4067   84.4079 C   0  0  0  0  0  0  0  0  0  0  0  0
  121.9137  123.8651   83.9869 C   0  0  0  0  0  0  0  0  0  0  0  0
  128.0659  123.0067   83.1150 H   0  0  0  0  0  0  0  0  0  0  0  0
  126.7213  121.8514   82.8253 H   0  0  0  0  0  0  0  0  0  0  0  0
  126.4022  123.6191   82.8253 H   0  0  0  0  0  0  0  0  0  0  0  0
  127.6601  122.6299   85.3253 H   0  0  0  0  0  0  0  0  0  0  0  0
  126.2485  123.7007   85.1074 H   0  0  0  0  0  0  0  0  0  0  0  0
  126.6542  121.3861   87.6084 H   0  0  0  0  0  0  0  0  0  0  0  0
  124.6900  121.4829   90.6874 H   0  0  0  0  0  0  0  0  0  0  0  0
  126.3171  121.4382   89.9572 H   0  0  0  0  0  0  0  0  0  0  0  0
  121.7774  122.1516   86.9138 H   0  0  0  0  0  0  0  0  0  0  0  0
  121.5269  121.7785   83.6053 H   0  0  0  0  0  0  0  0  0  0  0  0
  121.3346  122.2586   85.3138 H   0  0  0  0  0  0  0  0  0  0  0  0
  121.9019  124.5048   84.8817 H   0  0  0  0  0  0  0  0  0  0  0  0
  122.8079  124.0901   83.3870 H   0  0  0  0  0  0  0  0  0  0  0  0
  121.0119  124.0569   83.3870 H   0  0  0  0  0  0  0  0  0  0  0  0
  1  2  1  0
  2  3  1  0
  3  4  1  0
  4  5  2  0
  5  6  1  0
  6  7  1  0
  6  8  2  0
  8  9  1  0
  9 10  3  0
  8 11  1  0
 11 12  2  0
 12 13  1  0
 13 14  1  0
 14 15  1  0
 12  4  1  0
  1 16  1  0
  1 17  1  0
  1 18  1  0
  2 19  1  0
  2 20  1  0
  5 21  1  0
  7 22  1  0
  7 23  1  0
 11 24  1  0
 14 25  1  0
 14 26  1  0
 15 27  1  0
 15 28  1  0
 15 29  1  0
M  END
>  <loss>  (16) 
0.5948755145072937

>  <score>  (16) 
4.215220928192139

$$$$
RSBNAILPKCDZBJ-UHFFFAOYSA-N
     RDKit          3D

 29 29  0  0  0  0  0  0  0  0999 V2000
  127.6716  123.0766   84.4957 C   0  0  0  0  0  0  0  0  0  0  0  0
  126.1663  122.8730   84.4834 C   0  0  0  0  0  0  0  0  0  0  0  0
  125.8843  121.6517   85.1699 O   0  0  0  0  0  0  0  0  0  0  0  0
  124.9031  121.7287   86.1265 C   0  0  0  0  0  0  0  0  0  0  0  0
  125.3694  121.5302   87.4336 C   0  0  0  0  0  0  0  0  0  0  0  0
  124.5017  121.5323   88.5313 C   0  0  0  0  0  0  0  0  0  0  0  0
  125.0520  121.4641   89.8213 N   0  0  0  0  0  0  0  0  0  0  0  0
  123.1487  121.8234   88.2957 C   0  0  0  0  0  0  0  0  0  0  0  0
  122.2115  121.9252   89.3775 C   0  0  0  0  0  0  0  0  0  0  0  0
  121.4427  121.9911   90.2451 N   0  0  0  0  0  0  0  0  0  0  0  0
  122.6695  121.9937   86.9837 C   0  0  0  0  0  0  0  0  0  0  0  0
  123.5351  121.9266   85.8876 C   0  0  0  0  0  0  0  0  0  0  0  0
  123.1300  122.0365   84.5858 O   0  0  0  0  0  0  0  0  0  0  0  0
  122.1341  123.0060   84.2652 C   0  0  0  0  0  0  0  0  0  0  0  0
  121.9675  123.0191   82.7564 C   0  0  0  0  0  0  0  0  0  0  0  0
  128.0266  123.1246   85.5357 H   0  0  0  0  0  0  0  0  0  0  0  0
  128.1595  122.2362   83.9801 H   0  0  0  0  0  0  0  0  0  0  0  0
  127.9187  124.0163   83.9801 H   0  0  0  0  0  0  0  0  0  0  0  0
  125.6712  123.7121   84.9941 H   0  0  0  0  0  0  0  0  0  0  0  0
  125.7936  122.8271   83.4495 H   0  0  0  0  0  0  0  0  0  0  0  0
  126.4446  121.3689   87.6006 H   0  0  0  0  0  0  0  0  0  0  0  0
  124.4342  121.4641   90.6454 H   0  0  0  0  0  0  0  0  0  0  0  0
  126.0736  121.4141   89.9434 H   0  0  0  0  0  0  0  0  0  0  0  0
  121.5985  122.1822   86.8179 H   0  0  0  0  0  0  0  0  0  0  0  0
  121.1814  122.7362   84.7445 H   0  0  0  0  0  0  0  0  0  0  0  0
  122.4353  124.0001   84.6270 H   0  0  0  0  0  0  0  0  0  0  0  0
  120.8996  123.1035   82.5062 H   0  0  0  0  0  0  0  0  0  0  0  0
  122.5117  123.8771   82.3349 H   0  0  0  0  0  0  0  0  0  0  0  0
  122.3703  122.0864   82.3349 H   0  0  0  0  0  0  0  0  0  0  0  0
  1  2  1  0
  2  3  1  0
  3  4  1  0
  4  5  2  0
  5  6  1  0
  6  7  1  0
  6  8  2  0
  8  9  1  0
  9 10  3  0
  8 11  1  0
 11 12  2  0
 12 13  1  0
 13 14  1  0
 14 15  1  0
 12  4  1  0
  1 16  1  0
  1 17  1  0
  1 18  1  0
  2 19  1  0
  2 20  1  0
  5 21  1  0
  7 22  1  0
  7 23  1  0
 11 24  1  0
 14 25  1  0
 14 26  1  0
 15 27  1  0
 15 28  1  0
 15 29  1  0
M  END
>  <loss>  (17) 
0.5662230849266052

>  <score>  (17) 
4.059504508972168

$$$$
RSBNAILPKCDZBJ-UHFFFAOYSA-N
     RDKit          3D

 29 29  0  0  0  0  0  0  0  0999 V2000
  126.8592  121.2526   83.2922 C   0  0  0  0  0  0  0  0  0  0  0  0
  126.5270  121.0624   84.7610 C   0  0  0  0  0  0  0  0  0  0  0  0
  125.9982  122.3032   85.2500 O   0  0  0  0  0  0  0  0  0  0  0  0
  125.0067  122.1407   86.1854 C   0  0  0  0  0  0  0  0  0  0  0  0
  125.4590  122.0003   87.5043 C   0  0  0  0  0  0  0  0  0  0  0  0
  124.5624  121.8764   88.5711 C   0  0  0  0  0  0  0  0  0  0  0  0
  125.0759  121.6025   89.8503 N   0  0  0  0  0  0  0  0  0  0  0  0
  123.1900  121.8133   88.2716 C   0  0  0  0  0  0  0  0  0  0  0  0
  122.2155  121.6026   89.3033 C   0  0  0  0  0  0  0  0  0  0  0  0
  121.4201  121.4520   90.1354 N   0  0  0  0  0  0  0  0  0  0  0  0
  122.7324  121.9836   86.9506 C   0  0  0  0  0  0  0  0  0  0  0  0
  123.6340  122.1726   85.9005 C   0  0  0  0  0  0  0  0  0  0  0  0
  123.2697  122.3866   84.5989 O   0  0  0  0  0  0  0  0  0  0  0  0
  122.0027  122.9908   84.3479 C   0  0  0  0  0  0  0  0  0  0  0  0
  122.2349  124.2210   83.4881 C   0  0  0  0  0  0  0  0  0  0  0  0
  127.8104  121.7972   83.1990 H   0  0  0  0  0  0  0  0  0  0  0  0
  126.9502  120.2698   82.8066 H   0  0  0  0  0  0  0  0  0  0  0  0
  126.0577  121.8286   82.8066 H   0  0  0  0  0  0  0  0  0  0  0  0
  125.7788  120.2644   84.8761 H   0  0  0  0  0  0  0  0  0  0  0  0
  127.4259  120.7757   85.3265 H   0  0  0  0  0  0  0  0  0  0  0  0
  126.5405  121.9872   87.7047 H   0  0  0  0  0  0  0  0  0  0  0  0
  124.4365  121.5066   90.6522 H   0  0  0  0  0  0  0  0  0  0  0  0
  126.0915  121.4976   89.9860 H   0  0  0  0  0  0  0  0  0  0  0  0
  121.6523  121.9676   86.7433 H   0  0  0  0  0  0  0  0  0  0  0  0
  121.3490  122.2823   83.8181 H   0  0  0  0  0  0  0  0  0  0  0  0
  121.5172  123.2707   85.2945 H   0  0  0  0  0  0  0  0  0  0  0  0
  122.3998  125.0950   84.1354 H   0  0  0  0  0  0  0  0  0  0  0  0
  123.1190  124.0630   82.8531 H   0  0  0  0  0  0  0  0  0  0  0  0
  121.3539  124.3961   82.8531 H   0  0  0  0  0  0  0  0  0  0  0  0
  1  2  1  0
  2  3  1  0
  3  4  1  0
  4  5  2  0
  5  6  1  0
  6  7  1  0
  6  8  2  0
  8  9  1  0
  9 10  3  0
  8 11  1  0
 11 12  2  0
 12 13  1  0
 13 14  1  0
 14 15  1  0
 12  4  1  0
  1 16  1  0
  1 17  1  0
  1 18  1  0
  2 19  1  0
  2 20  1  0
  5 21  1  0
  7 22  1  0
  7 23  1  0
 11 24  1  0
 14 25  1  0
 14 26  1  0
 15 27  1  0
 15 28  1  0
 15 29  1  0
M  END
>  <loss>  (18) 
0.5660908222198486

>  <score>  (18) 
4.044205665588379

$$$$
RSBNAILPKCDZBJ-UHFFFAOYSA-N
     RDKit          3D

 29 29  0  0  0  0  0  0  0  0999 V2000
  126.8741  120.6530   83.7351 C   0  0  0  0  0  0  0  0  0  0  0  0
  125.8776  121.7432   84.0876 C   0  0  0  0  0  0  0  0  0  0  0  0
  126.1231  122.2478   85.3984 O   0  0  0  0  0  0  0  0  0  0  0  0
  125.1653  122.1432   86.3689 C   0  0  0  0  0  0  0  0  0  0  0  0
  125.4438  121.9451   87.7299 C   0  0  0  0  0  0  0  0  0  0  0  0
  124.4232  121.8135   88.6886 C   0  0  0  0  0  0  0  0  0  0  0  0
  124.7869  121.5025   90.0107 N   0  0  0  0  0  0  0  0  0  0  0  0
  123.0931  121.7726   88.2426 C   0  0  0  0  0  0  0  0  0  0  0  0
  122.0060  121.5532   89.1517 C   0  0  0  0  0  0  0  0  0  0  0  0
  121.1308  121.3972   89.8989 N   0  0  0  0  0  0  0  0  0  0  0  0
  122.8020  121.9686   86.8884 C   0  0  0  0  0  0  0  0  0  0  0  0
  123.8238  122.1809   85.9571 C   0  0  0  0  0  0  0  0  0  0  0  0
  123.3614  122.3482   84.6768 O   0  0  0  0  0  0  0  0  0  0  0  0
  122.4392  123.4184   84.4684 C   0  0  0  0  0  0  0  0  0  0  0  0
  121.6772  123.1296   83.1864 C   0  0  0  0  0  0  0  0  0  0  0  0
  127.2771  120.2120   84.6587 H   0  0  0  0  0  0  0  0  0  0  0  0
  126.3705  119.8726   83.1456 H   0  0  0  0  0  0  0  0  0  0  0  0
  127.6964  121.0845   83.1456 H   0  0  0  0  0  0  0  0  0  0  0  0
  125.9696  122.5646   83.3617 H   0  0  0  0  0  0  0  0  0  0  0  0
  124.8636  121.3179   84.0573 H   0  0  0  0  0  0  0  0  0  0  0  0
  126.4927  121.8912   88.0571 H   0  0  0  0  0  0  0  0  0  0  0  0
  124.0607  121.4000   90.7340 H   0  0  0  0  0  0  0  0  0  0  0  0
  125.7794  121.3772   90.2560 H   0  0  0  0  0  0  0  0  0  0  0  0
  121.7551  121.9555   86.5513 H   0  0  0  0  0  0  0  0  0  0  0  0
  121.7390  123.4794   85.3146 H   0  0  0  0  0  0  0  0  0  0  0  0
  122.9732  124.3770   84.3911 H   0  0  0  0  0  0  0  0  0  0  0  0
  120.6748  122.7498   83.4333 H   0  0  0  0  0  0  0  0  0  0  0  0
  121.5842  124.0549   82.5988 H   0  0  0  0  0  0  0  0  0  0  0  0
  122.2207  122.3751   82.5988 H   0  0  0  0  0  0  0  0  0  0  0  0
  1  2  1  0
  2  3  1  0
  3  4  1  0
  4  5  2  0
  5  6  1  0
  6  7  1  0
  6  8  2  0
  8  9  1  0
  9 10  3  0
  8 11  1  0
 11 12  2  0
 12 13  1  0
 13 14  1  0
 14 15  1  0
 12  4  1  0
  1 16  1  0
  1 17  1  0
  1 18  1  0
  2 19  1  0
  2 20  1  0
  5 21  1  0
  7 22  1  0
  7 23  1  0
 11 24  1  0
 14 25  1  0
 14 26  1  0
 15 27  1  0
 15 28  1  0
 15 29  1  0
M  END
>  <loss>  (19) 
0.5827621221542358

>  <score>  (19) 
3.9695992469787598

$$$$
RSBNAILPKCDZBJ-UHFFFAOYSA-N
     RDKit          3D

 29 29  0  0  0  0  0  0  0  0999 V2000
  126.8479  120.5636   83.7908 C   0  0  0  0  0  0  0  0  0  0  0  0
  125.9061  121.7184   84.0830 C   0  0  0  0  0  0  0  0  0  0  0  0
  126.1356  122.2395   85.3902 O   0  0  0  0  0  0  0  0  0  0  0  0
  125.1691  122.1395   86.3525 C   0  0  0  0  0  0  0  0  0  0  0  0
  125.4352  121.9403   87.7159 C   0  0  0  0  0  0  0  0  0  0  0  0
  124.4059  121.8137   88.6659 C   0  0  0  0  0  0  0  0  0  0  0  0
  124.7569  121.5011   89.9911 N   0  0  0  0  0  0  0  0  0  0  0  0
  123.0794  121.7791   88.2087 C   0  0  0  0  0  0  0  0  0  0  0  0
  121.9836  121.5649   89.1086 C   0  0  0  0  0  0  0  0  0  0  0  0
  121.1015  121.4131   89.8484 N   0  0  0  0  0  0  0  0  0  0  0  0
  122.8008  121.9763   86.8521 C   0  0  0  0  0  0  0  0  0  0  0  0
  123.8313  122.1836   85.9295 C   0  0  0  0  0  0  0  0  0  0  0  0
  123.3806  122.3530   84.6453 O   0  0  0  0  0  0  0  0  0  0  0  0
  122.4655  123.4277   84.4290 C   0  0  0  0  0  0  0  0  0  0  0  0
  121.7027  123.1354   83.1482 C   0  0  0  0  0  0  0  0  0  0  0  0
  127.2014  120.1301   84.7380 H   0  0  0  0  0  0  0  0  0  0  0  0
  126.3162  119.7944   83.2114 H   0  0  0  0  0  0  0  0  0  0  0  0
  127.7083  120.9297   83.2114 H   0  0  0  0  0  0  0  0  0  0  0  0
  126.0716  122.5151   83.3428 H   0  0  0  0  0  0  0  0  0  0  0  0
  124.8704  121.3524   84.0257 H   0  0  0  0  0  0  0  0  0  0  0  0
  126.4810  121.8814   88.0519 H   0  0  0  0  0  0  0  0  0  0  0  0
  124.0242  121.4021   90.7082 H   0  0  0  0  0  0  0  0  0  0  0  0
  125.7467  121.3710   90.2448 H   0  0  0  0  0  0  0  0  0  0  0  0
  121.7566  121.9682   86.5062 H   0  0  0  0  0  0  0  0  0  0  0  0
  121.7650  123.4988   85.2741 H   0  0  0  0  0  0  0  0  0  0  0  0
  123.0057  124.3823   84.3458 H   0  0  0  0  0  0  0  0  0  0  0  0
  120.7021  122.7519   83.3968 H   0  0  0  0  0  0  0  0  0  0  0  0
  121.6054  124.0599   82.5602 H   0  0  0  0  0  0  0  0  0  0  0  0
  122.2482  122.3826   82.5602 H   0  0  0  0  0  0  0  0  0  0  0  0
  1  2  1  0
  2  3  1  0
  3  4  1  0
  4  5  2  0
  5  6  1  0
  6  7  1  0
  6  8  2  0
  8  9  1  0
  9 10  3  0
  8 11  1  0
 11 12  2  0
 12 13  1  0
 13 14  1  0
 14 15  1  0
 12  4  1  0
  1 16  1  0
  1 17  1  0
  1 18  1  0
  2 19  1  0
  2 20  1  0
  5 21  1  0
  7 22  1  0
  7 23  1  0
 11 24  1  0
 14 25  1  0
 14 26  1  0
 15 27  1  0
 15 28  1  0
 15 29  1  0
M  END
>  <loss>  (20) 
0.5841258764266968

>  <score>  (20) 
3.9659249782562256

$$$$
RSBNAILPKCDZBJ-UHFFFAOYSA-N
     RDKit          3D

 29 29  0  0  0  0  0  0  0  0999 V2000
  126.8178  121.1932   83.1602 C   0  0  0  0  0  0  0  0  0  0  0  0
  126.6374  121.1059   84.6654 C   0  0  0  0  0  0  0  0  0  0  0  0
  125.9788  122.2681   85.1638 O   0  0  0  0  0  0  0  0  0  0  0  0
  125.1055  122.1707   86.2117 C   0  0  0  0  0  0  0  0  0  0  0  0
  125.4976  122.0019   87.5485 C   0  0  0  0  0  0  0  0  0  0  0  0
  124.5612  121.8765   88.5902 C   0  0  0  0  0  0  0  0  0  0  0  0
  125.0364  121.5951   89.8833 N   0  0  0  0  0  0  0  0  0  0  0  0
  123.1995  121.8113   88.2563 C   0  0  0  0  0  0  0  0  0  0  0  0
  122.1939  121.5963   89.2557 C   0  0  0  0  0  0  0  0  0  0  0  0
  121.3854  121.4441   90.0752 N   0  0  0  0  0  0  0  0  0  0  0  0
  122.7955  121.9779   86.9274 C   0  0  0  0  0  0  0  0  0  0  0  0
  123.7343  122.1846   85.9114 C   0  0  0  0  0  0  0  0  0  0  0  0
  123.1660  122.3220   84.6708 O   0  0  0  0  0  0  0  0  0  0  0  0
  122.5087  123.5617   84.4060 C   0  0  0  0  0  0  0  0  0  0  0  0
  121.5558  123.3415   83.2436 C   0  0  0  0  0  0  0  0  0  0  0  0
  127.7867  121.6622   82.9336 H   0  0  0  0  0  0  0  0  0  0  0  0
  126.7901  120.1819   82.7283 H   0  0  0  0  0  0  0  0  0  0  0  0
  126.0074  121.7987   82.7283 H   0  0  0  0  0  0  0  0  0  0  0  0
  126.0338  120.2182   84.9056 H   0  0  0  0  0  0  0  0  0  0  0  0
  127.6289  121.0329   85.1362 H   0  0  0  0  0  0  0  0  0  0  0  0
  126.5705  121.9667   87.7889 H   0  0  0  0  0  0  0  0  0  0  0  0
  124.3737  121.4977   90.6657 H   0  0  0  0  0  0  0  0  0  0  0  0
  126.0473  121.4862   90.0481 H   0  0  0  0  0  0  0  0  0  0  0  0
  121.7246  121.9459   86.6781 H   0  0  0  0  0  0  0  0  0  0  0  0
  121.9469  123.8850   85.2947 H   0  0  0  0  0  0  0  0  0  0  0  0
  123.2437  124.3418   84.1586 H   0  0  0  0  0  0  0  0  0  0  0  0
  120.5527  123.1096   83.6307 H   0  0  0  0  0  0  0  0  0  0  0  0
  121.5102  124.2528   82.6292 H   0  0  0  0  0  0  0  0  0  0  0  0
  121.9147  122.5026   82.6292 H   0  0  0  0  0  0  0  0  0  0  0  0
  1  2  1  0
  2  3  1  0
  3  4  1  0
  4  5  2  0
  5  6  1  0
  6  7  1  0
  6  8  2  0
  8  9  1  0
  9 10  3  0
  8 11  1  0
 11 12  2  0
 12 13  1  0
 13 14  1  0
 14 15  1  0
 12  4  1  0
  1 16  1  0
  1 17  1  0
  1 18  1  0
  2 19  1  0
  2 20  1  0
  5 21  1  0
  7 22  1  0
  7 23  1  0
 11 24  1  0
 14 25  1  0
 14 26  1  0
 15 27  1  0
 15 28  1  0
 15 29  1  0
M  END
>  <loss>  (21) 
0.5720881819725037

>  <score>  (21) 
3.878934621810913

$$$$
RSBNAILPKCDZBJ-UHFFFAOYSA-N
     RDKit          3D

 29 29  0  0  0  0  0  0  0  0999 V2000
  126.9296  120.7131   83.8785 C   0  0  0  0  0  0  0  0  0  0  0  0
  125.8348  121.7264   84.1584 C   0  0  0  0  0  0  0  0  0  0  0  0
  126.0745  122.2744   85.4625 O   0  0  0  0  0  0  0  0  0  0  0  0
  125.0182  122.1102   86.3239 C   0  0  0  0  0  0  0  0  0  0  0  0
  125.3772  121.8998   87.6620 C   0  0  0  0  0  0  0  0  0  0  0  0
  124.4082  121.7653   88.6622 C   0  0  0  0  0  0  0  0  0  0  0  0
  124.8262  121.4210   89.9590 N   0  0  0  0  0  0  0  0  0  0  0  0
  123.0573  121.7645   88.2720 C   0  0  0  0  0  0  0  0  0  0  0  0
  122.0100  121.5475   89.2283 C   0  0  0  0  0  0  0  0  0  0  0  0
  121.1566  121.3922   89.9998 N   0  0  0  0  0  0  0  0  0  0  0  0
  122.6943  122.0049   86.9326 C   0  0  0  0  0  0  0  0  0  0  0  0
  123.6693  122.2035   85.9523 C   0  0  0  0  0  0  0  0  0  0  0  0
  123.3995  122.4836   84.6402 O   0  0  0  0  0  0  0  0  0  0  0  0
  122.1424  123.0792   84.3265 C   0  0  0  0  0  0  0  0  0  0  0  0
  122.1861  123.5230   82.8747 C   0  0  0  0  0  0  0  0  0  0  0  0
  127.3345  120.3384   84.8302 H   0  0  0  0  0  0  0  0  0  0  0  0
  126.5139  119.8741   83.3013 H   0  0  0  0  0  0  0  0  0  0  0  0
  127.7340  121.1924   83.3013 H   0  0  0  0  0  0  0  0  0  0  0  0
  125.8626  122.5267   83.4043 H   0  0  0  0  0  0  0  0  0  0  0  0
  124.8453  121.2479   84.1162 H   0  0  0  0  0  0  0  0  0  0  0  0
  126.4420  121.8392   87.9314 H   0  0  0  0  0  0  0  0  0  0  0  0
  124.1323  121.3159   90.7129 H   0  0  0  0  0  0  0  0  0  0  0  0
  125.8265  121.2738   90.1556 H   0  0  0  0  0  0  0  0  0  0  0  0
  121.6303  122.0367   86.6553 H   0  0  0  0  0  0  0  0  0  0  0  0
  121.3352  122.3456   84.4690 H   0  0  0  0  0  0  0  0  0  0  0  0
  121.9509  123.9394   84.9848 H   0  0  0  0  0  0  0  0  0  0  0  0
  122.2936  124.6168   82.8288 H   0  0  0  0  0  0  0  0  0  0  0  0
  123.0419  123.0489   82.3720 H   0  0  0  0  0  0  0  0  0  0  0  0
  121.2543  123.2248   82.3720 H   0  0  0  0  0  0  0  0  0  0  0  0
  1  2  1  0
  2  3  1  0
  3  4  1  0
  4  5  2  0
  5  6  1  0
  6  7  1  0
  6  8  2  0
  8  9  1  0
  9 10  3  0
  8 11  1  0
 11 12  2  0
 12 13  1  0
 13 14  1  0
 14 15  1  0
 12  4  1  0
  1 16  1  0
  1 17  1  0
  1 18  1  0
  2 19  1  0
  2 20  1  0
  5 21  1  0
  7 22  1  0
  7 23  1  0
 11 24  1  0
 14 25  1  0
 14 26  1  0
 15 27  1  0
 15 28  1  0
 15 29  1  0
M  END
>  <loss>  (22) 
0.5837051868438721

>  <score>  (22) 
3.8941354751586914

$$$$
RSBNAILPKCDZBJ-UHFFFAOYSA-N
     RDKit          3D

 29 29  0  0  0  0  0  0  0  0999 V2000
  126.9779  120.7862   83.8597 C   0  0  0  0  0  0  0  0  0  0  0  0
  125.8512  121.7534   84.1740 C   0  0  0  0  0  0  0  0  0  0  0  0
  126.0938  122.2914   85.4817 O   0  0  0  0  0  0  0  0  0  0  0  0
  125.0392  122.1213   86.3439 C   0  0  0  0  0  0  0  0  0  0  0  0
  125.4004  121.9130   87.6818 C   0  0  0  0  0  0  0  0  0  0  0  0
  124.4329  121.7731   88.6828 C   0  0  0  0  0  0  0  0  0  0  0  0
  124.8539  121.4313   89.9793 N   0  0  0  0  0  0  0  0  0  0  0  0
  123.0818  121.7648   88.2936 C   0  0  0  0  0  0  0  0  0  0  0  0
  122.0365  121.5421   89.2507 C   0  0  0  0  0  0  0  0  0  0  0  0
  121.1845  121.3821   90.0230 N   0  0  0  0  0  0  0  0  0  0  0  0
  122.7163  122.0032   86.9545 C   0  0  0  0  0  0  0  0  0  0  0  0
  123.6894  122.2072   85.9734 C   0  0  0  0  0  0  0  0  0  0  0  0
  123.4170  122.4856   84.6615 O   0  0  0  0  0  0  0  0  0  0  0  0
  122.1434  123.0433   84.3449 C   0  0  0  0  0  0  0  0  0  0  0  0
  122.1957  123.5409   82.9110 C   0  0  0  0  0  0  0  0  0  0  0  0
  127.4130  120.4127   84.7984 H   0  0  0  0  0  0  0  0  0  0  0  0
  126.5836  119.9410   83.2765 H   0  0  0  0  0  0  0  0  0  0  0  0
  127.7536  121.3040   83.2765 H   0  0  0  0  0  0  0  0  0  0  0  0
  125.8353  122.5649   83.4315 H   0  0  0  0  0  0  0  0  0  0  0  0
  124.8797  121.2385   84.1421 H   0  0  0  0  0  0  0  0  0  0  0  0
  126.4657  121.8583   87.9503 H   0  0  0  0  0  0  0  0  0  0  0  0
  124.1612  121.3224   90.7337 H   0  0  0  0  0  0  0  0  0  0  0  0
  125.8551  121.2896   90.1750 H   0  0  0  0  0  0  0  0  0  0  0  0
  121.6520  122.0290   86.6780 H   0  0  0  0  0  0  0  0  0  0  0  0
  121.3632  122.2745   84.4455 H   0  0  0  0  0  0  0  0  0  0  0  0
  121.9064  123.8710   85.0295 H   0  0  0  0  0  0  0  0  0  0  0  0
  122.3107  124.6349   82.9065 H   0  0  0  0  0  0  0  0  0  0  0  0
  123.0504  123.0803   82.3939 H   0  0  0  0  0  0  0  0  0  0  0  0
  121.2640  123.2680   82.3939 H   0  0  0  0  0  0  0  0  0  0  0  0
  1  2  1  0
  2  3  1  0
  3  4  1  0
  4  5  2  0
  5  6  1  0
  6  7  1  0
  6  8  2  0
  8  9  1  0
  9 10  3  0
  8 11  1  0
 11 12  2  0
 12 13  1  0
 13 14  1  0
 14 15  1  0
 12  4  1  0
  1 16  1  0
  1 17  1  0
  1 18  1  0
  2 19  1  0
  2 20  1  0
  5 21  1  0
  7 22  1  0
  7 23  1  0
 11 24  1  0
 14 25  1  0
 14 26  1  0
 15 27  1  0
 15 28  1  0
 15 29  1  0
M  END
>  <loss>  (23) 
0.5820403099060059

>  <score>  (23) 
3.8849759101867676

$$$$
RSBNAILPKCDZBJ-UHFFFAOYSA-N
     RDKit          3D

 29 29  0  0  0  0  0  0  0  0999 V2000
  126.8636  121.7212   83.0538 C   0  0  0  0  0  0  0  0  0  0  0  0
  126.2658  121.2006   84.3482 C   0  0  0  0  0  0  0  0  0  0  0  0
  126.1381  122.3133   85.2449 O   0  0  0  0  0  0  0  0  0  0  0  0
  125.1745  122.1297   86.2054 C   0  0  0  0  0  0  0  0  0  0  0  0
  125.6653  121.9673   87.5079 C   0  0  0  0  0  0  0  0  0  0  0  0
  124.8003  121.8203   88.5977 C   0  0  0  0  0  0  0  0  0  0  0  0
  125.3515  121.5255   89.8564 N   0  0  0  0  0  0  0  0  0  0  0  0
  123.4201  121.7569   88.3368 C   0  0  0  0  0  0  0  0  0  0  0  0
  122.4765  121.5235   89.3920 C   0  0  0  0  0  0  0  0  0  0  0  0
  121.7060  121.3545   90.2438 N   0  0  0  0  0  0  0  0  0  0  0  0
  122.9239  121.9492   87.0328 C   0  0  0  0  0  0  0  0  0  0  0  0
  123.7941  122.1609   85.9608 C   0  0  0  0  0  0  0  0  0  0  0  0
  123.3916  122.3970   84.6743 O   0  0  0  0  0  0  0  0  0  0  0  0
  122.0150  122.6903   84.4456 C   0  0  0  0  0  0  0  0  0  0  0  0
  121.9054  124.1614   84.0845 C   0  0  0  0  0  0  0  0  0  0  0  0
  127.6751  122.4277   83.2828 H   0  0  0  0  0  0  0  0  0  0  0  0
  127.2643  120.8792   82.4703 H   0  0  0  0  0  0  0  0  0  0  0  0
  126.0848  122.2339   82.4703 H   0  0  0  0  0  0  0  0  0  0  0  0
  125.2768  120.7598   84.1541 H   0  0  0  0  0  0  0  0  0  0  0  0
  126.9093  120.4233   84.7860 H   0  0  0  0  0  0  0  0  0  0  0  0
  126.7522  121.9551   87.6769 H   0  0  0  0  0  0  0  0  0  0  0  0
  124.7359  121.4124   90.6745 H   0  0  0  0  0  0  0  0  0  0  0  0
  126.3710  121.4224   89.9609 H   0  0  0  0  0  0  0  0  0  0  0  0
  121.8383  121.9324   86.8564 H   0  0  0  0  0  0  0  0  0  0  0  0
  121.6336  122.0730   83.6189 H   0  0  0  0  0  0  0  0  0  0  0  0
  121.4217  122.4713   85.3456 H   0  0  0  0  0  0  0  0  0  0  0  0
  121.8607  124.7625   85.0046 H   0  0  0  0  0  0  0  0  0  0  0  0
  122.7838  124.4603   83.4936 H   0  0  0  0  0  0  0  0  0  0  0  0
  120.9925  124.3269   83.4936 H   0  0  0  0  0  0  0  0  0  0  0  0
  1  2  1  0
  2  3  1  0
  3  4  1  0
  4  5  2  0
  5  6  1  0
  6  7  1  0
  6  8  2  0
  8  9  1  0
  9 10  3  0
  8 11  1  0
 11 12  2  0
 12 13  1  0
 13 14  1  0
 14 15  1  0
 12  4  1  0
  1 16  1  0
  1 17  1  0
  1 18  1  0
  2 19  1  0
  2 20  1  0
  5 21  1  0
  7 22  1  0
  7 23  1  0
 11 24  1  0
 14 25  1  0
 14 26  1  0
 15 27  1  0
 15 28  1  0
 15 29  1  0
M  END
>  <loss>  (24) 
0.6001918315887451

>  <score>  (24) 
3.917088270187378

$$$$
RSBNAILPKCDZBJ-UHFFFAOYSA-N
     RDKit          3D

 29 29  0  0  0  0  0  0  0  0999 V2000
  126.8973  121.5947   82.9578 C   0  0  0  0  0  0  0  0  0  0  0  0
  126.3055  121.1485   84.2832 C   0  0  0  0  0  0  0  0  0  0  0  0
  126.0673  122.2685   85.1329 O   0  0  0  0  0  0  0  0  0  0  0  0
  125.2401  122.1499   86.2155 C   0  0  0  0  0  0  0  0  0  0  0  0
  125.6905  121.9963   87.5357 C   0  0  0  0  0  0  0  0  0  0  0  0
  124.8007  121.8479   88.6147 C   0  0  0  0  0  0  0  0  0  0  0  0
  125.3355  121.5839   89.8880 N   0  0  0  0  0  0  0  0  0  0  0  0
  123.4291  121.7436   88.3362 C   0  0  0  0  0  0  0  0  0  0  0  0
  122.4711  121.5037   89.3760 C   0  0  0  0  0  0  0  0  0  0  0  0
  121.7009  121.3316   90.2278 N   0  0  0  0  0  0  0  0  0  0  0  0
  122.9672  121.8948   87.0245 C   0  0  0  0  0  0  0  0  0  0  0  0
  123.8580  122.1245   85.9709 C   0  0  0  0  0  0  0  0  0  0  0  0
  123.2365  122.2421   84.7540 O   0  0  0  0  0  0  0  0  0  0  0  0
  122.6262  123.5017   84.4706 C   0  0  0  0  0  0  0  0  0  0  0  0
  121.2409  123.2292   83.9099 C   0  0  0  0  0  0  0  0  0  0  0  0
  127.7629  122.2475   83.1440 H   0  0  0  0  0  0  0  0  0  0  0  0
  127.2195  120.7129   82.3847 H   0  0  0  0  0  0  0  0  0  0  0  0
  126.1381  122.1471   82.3847 H   0  0  0  0  0  0  0  0  0  0  0  0
  125.3545  120.6282   84.0968 H   0  0  0  0  0  0  0  0  0  0  0  0
  127.0193  120.4745   84.7794 H   0  0  0  0  0  0  0  0  0  0  0  0
  126.7727  121.9918   87.7326 H   0  0  0  0  0  0  0  0  0  0  0  0
  124.7079  121.4705   90.6968 H   0  0  0  0  0  0  0  0  0  0  0  0
  126.3549  121.5039   90.0120 H   0  0  0  0  0  0  0  0  0  0  0  0
  121.8885  121.8322   86.8187 H   0  0  0  0  0  0  0  0  0  0  0  0
  122.5467  124.0953   85.3932 H   0  0  0  0  0  0  0  0  0  0  0  0
  123.2302  124.0675   83.7459 H   0  0  0  0  0  0  0  0  0  0  0  0
  120.5310  123.0895   84.7385 H   0  0  0  0  0  0  0  0  0  0  0  0
  120.9210  124.0816   83.2927 H   0  0  0  0  0  0  0  0  0  0  0  0
  121.2677  122.3191   83.2927 H   0  0  0  0  0  0  0  0  0  0  0  0
  1  2  1  0
  2  3  1  0
  3  4  1  0
  4  5  2  0
  5  6  1  0
  6  7  1  0
  6  8  2  0
  8  9  1  0
  9 10  3  0
  8 11  1  0
 11 12  2  0
 12 13  1  0
 13 14  1  0
 14 15  1  0
 12  4  1  0
  1 16  1  0
  1 17  1  0
  1 18  1  0
  2 19  1  0
  2 20  1  0
  5 21  1  0
  7 22  1  0
  7 23  1  0
 11 24  1  0
 14 25  1  0
 14 26  1  0
 15 27  1  0
 15 28  1  0
 15 29  1  0
M  END
>  <loss>  (25) 
0.6059535145759583

>  <score>  (25) 
3.845773935317993

$$$$
