RWWHDWGTLIGQBC-UHFFFAOYSA-N
     RDKit          3D

 20 20  0  0  0  0  0  0  0  0999 V2000
  126.0521  121.1321   89.6416 N   0  0  0  0  0  0  0  0  0  0  0  0
  125.2133  121.4303   88.8970 C   0  0  0  0  0  0  0  0  0  0  0  0
  124.1716  121.7974   87.9832 C   0  0  0  0  0  0  0  0  0  0  0  0
  124.4806  122.1656   86.6723 C   0  0  0  0  0  0  0  0  0  0  0  0
  123.4632  122.5247   85.7782 C   0  0  0  0  0  0  0  0  0  0  0  0
  122.1273  122.5203   86.1839 C   0  0  0  0  0  0  0  0  0  0  0  0
  121.0425  122.8657   85.3522 N   0  0  0  0  0  0  0  0  0  0  0  0
  121.0438  123.0474   83.9632 C   0  0  0  0  0  0  0  0  0  0  0  0
  122.0463  122.9215   83.2595 O   0  0  0  0  0  0  0  0  0  0  0  0
  119.6467  123.3872   83.3753 C   0  0  0  0  0  0  0  0  0  0  0  0
  119.7598  123.8657   81.6683 Cl  0  0  0  0  0  0  0  0  0  0  0  0
  118.6170  121.9362   83.5382 Cl  0  0  0  0  0  0  0  0  0  0  0  0
  118.9267  124.7262   84.3217 Cl  0  0  0  0  0  0  0  0  0  0  0  0
  121.8239  122.1489   87.5010 C   0  0  0  0  0  0  0  0  0  0  0  0
  122.8379  121.7898   88.3963 C   0  0  0  0  0  0  0  0  0  0  0  0
  125.5290  122.1739   86.3395 H   0  0  0  0  0  0  0  0  0  0  0  0
  123.7192  122.8126   84.7479 H   0  0  0  0  0  0  0  0  0  0  0  0
  120.1371  123.0011   85.8243 H   0  0  0  0  0  0  0  0  0  0  0  0
  120.7758  122.1396   87.8351 H   0  0  0  0  0  0  0  0  0  0  0  0
  122.5837  121.5011   89.4268 H   0  0  0  0  0  0  0  0  0  0  0  0
  1  2  3  0
  2  3  1  0
  3  4  2  0
  4  5  1  0
  5  6  2  0
  6  7  1  0
  7  8  1  0
  8  9  2  0
  8 10  1  0
 10 11  1  0
 10 12  1  0
 10 13  1  0
  6 14  1  0
 14 15  2  0
 15  3  1  0
  4 16  1  0
  5 17  1  0
  7 18  1  0
 14 19  1  0
 15 20  1  0
M  END
>  <loss>  (1) 
0.48252224922180176

>  <score>  (1) 
3.4223642349243164

$$$$
RWWHDWGTLIGQBC-UHFFFAOYSA-N
     RDKit          3D

 20 20  0  0  0  0  0  0  0  0999 V2000
  126.0324  121.1260   89.6577 N   0  0  0  0  0  0  0  0  0  0  0  0
  125.1965  121.4240   88.9099 C   0  0  0  0  0  0  0  0  0  0  0  0
  124.1582  121.7911   87.9921 C   0  0  0  0  0  0  0  0  0  0  0  0
  124.4706  122.1406   86.6768 C   0  0  0  0  0  0  0  0  0  0  0  0
  123.4566  122.4995   85.7788 C   0  0  0  0  0  0  0  0  0  0  0  0
  122.1209  122.5136   86.1848 C   0  0  0  0  0  0  0  0  0  0  0  0
  121.0394  122.8603   85.3494 N   0  0  0  0  0  0  0  0  0  0  0  0
  121.0425  123.0274   83.9585 C   0  0  0  0  0  0  0  0  0  0  0  0
  122.0367  122.8552   83.2527 O   0  0  0  0  0  0  0  0  0  0  0  0
  119.6575  123.4154   83.3718 C   0  0  0  0  0  0  0  0  0  0  0  0
  119.7947  123.9506   81.6835 Cl  0  0  0  0  0  0  0  0  0  0  0  0
  118.5980  121.9805   83.4759 Cl  0  0  0  0  0  0  0  0  0  0  0  0
  118.9560  124.7349   84.3587 Cl  0  0  0  0  0  0  0  0  0  0  0  0
  121.8141  122.1609   87.5063 C   0  0  0  0  0  0  0  0  0  0  0  0
  122.8247  121.8020   88.4055 C   0  0  0  0  0  0  0  0  0  0  0  0
  125.5189  122.1341   86.3437 H   0  0  0  0  0  0  0  0  0  0  0  0
  123.7152  122.7725   84.7451 H   0  0  0  0  0  0  0  0  0  0  0  0
  120.1353  123.0091   85.8198 H   0  0  0  0  0  0  0  0  0  0  0  0
  120.7662  122.1664   87.8407 H   0  0  0  0  0  0  0  0  0  0  0  0
  122.5679  121.5281   89.4394 H   0  0  0  0  0  0  0  0  0  0  0  0
  1  2  3  0
  2  3  1  0
  3  4  2  0
  4  5  1  0
  5  6  2  0
  6  7  1  0
  7  8  1  0
  8  9  2  0
  8 10  1  0
 10 11  1  0
 10 12  1  0
 10 13  1  0
  6 14  1  0
 14 15  2  0
 15  3  1  0
  4 16  1  0
  5 17  1  0
  7 18  1  0
 14 19  1  0
 15 20  1  0
M  END
>  <loss>  (2) 
0.4872407913208008

>  <score>  (2) 
3.4047346115112305

$$$$
RWWHDWGTLIGQBC-UHFFFAOYSA-N
     RDKit          3D

 20 20  0  0  0  0  0  0  0  0999 V2000
  125.9314  121.2735   89.8050 N   0  0  0  0  0  0  0  0  0  0  0  0
  125.1809  121.5085   88.9515 C   0  0  0  0  0  0  0  0  0  0  0  0
  124.2601  121.8001   87.8922 C   0  0  0  0  0  0  0  0  0  0  0  0
  124.7321  122.1386   86.6225 C   0  0  0  0  0  0  0  0  0  0  0  0
  123.8298  122.4227   85.5911 C   0  0  0  0  0  0  0  0  0  0  0  0
  122.4467  122.3726   85.8130 C   0  0  0  0  0  0  0  0  0  0  0  0
  121.6131  122.6739   84.7166 N   0  0  0  0  0  0  0  0  0  0  0  0
  120.4354  123.4333   84.7112 C   0  0  0  0  0  0  0  0  0  0  0  0
  120.0295  124.0706   85.6832 O   0  0  0  0  0  0  0  0  0  0  0  0
  119.6840  123.4080   83.3520 C   0  0  0  0  0  0  0  0  0  0  0  0
  118.1951  124.3745   83.4111 Cl  0  0  0  0  0  0  0  0  0  0  0  0
  119.2835  121.7094   82.9572 Cl  0  0  0  0  0  0  0  0  0  0  0  0
  120.7794  124.0580   82.0968 Cl  0  0  0  0  0  0  0  0  0  0  0  0
  121.9826  122.0336   87.0853 C   0  0  0  0  0  0  0  0  0  0  0  0
  122.8835  121.7486   88.1200 C   0  0  0  0  0  0  0  0  0  0  0  0
  125.8147  122.1821   86.4326 H   0  0  0  0  0  0  0  0  0  0  0  0
  124.2107  122.6884   84.5940 H   0  0  0  0  0  0  0  0  0  0  0  0
  121.9059  122.2884   83.8075 H   0  0  0  0  0  0  0  0  0  0  0  0
  120.9003  121.9897   87.2772 H   0  0  0  0  0  0  0  0  0  0  0  0
  122.5041  121.4827   89.1177 H   0  0  0  0  0  0  0  0  0  0  0  0
  1  2  3  0
  2  3  1  0
  3  4  2  0
  4  5  1  0
  5  6  2  0
  6  7  1  0
  7  8  1  0
  8  9  2  0
  8 10  1  0
 10 11  1  0
 10 12  1  0
 10 13  1  0
  6 14  1  0
 14 15  2  0
 15  3  1  0
  4 16  1  0
  5 17  1  0
  7 18  1  0
 14 19  1  0
 15 20  1  0
M  END
>  <loss>  (3) 
0.4970627725124359

>  <score>  (3) 
3.4342777729034424

$$$$
RWWHDWGTLIGQBC-UHFFFAOYSA-N
     RDKit          3D

 20 20  0  0  0  0  0  0  0  0999 V2000
  125.9025  121.2318   89.7912 N   0  0  0  0  0  0  0  0  0  0  0  0
  125.1593  121.4863   88.9370 C   0  0  0  0  0  0  0  0  0  0  0  0
  124.2475  121.8020   87.8767 C   0  0  0  0  0  0  0  0  0  0  0  0
  124.7301  122.1509   86.6138 C   0  0  0  0  0  0  0  0  0  0  0  0
  123.8366  122.4584   85.5815 C   0  0  0  0  0  0  0  0  0  0  0  0
  122.4518  122.4218   85.7957 C   0  0  0  0  0  0  0  0  0  0  0  0
  121.6276  122.7467   84.6989 N   0  0  0  0  0  0  0  0  0  0  0  0
  120.4224  123.4615   84.7072 C   0  0  0  0  0  0  0  0  0  0  0  0
  120.0102  124.0936   85.6800 O   0  0  0  0  0  0  0  0  0  0  0  0
  119.6485  123.3938   83.3622 C   0  0  0  0  0  0  0  0  0  0  0  0
  118.4603  124.7069   83.2258 Cl  0  0  0  0  0  0  0  0  0  0  0  0
  118.8132  121.8143   83.2677 Cl  0  0  0  0  0  0  0  0  0  0  0  0
  120.8352  123.5090   82.0293 Cl  0  0  0  0  0  0  0  0  0  0  0  0
  121.9771  122.0723   87.0612 C   0  0  0  0  0  0  0  0  0  0  0  0
  122.8692  121.7638   88.0968 C   0  0  0  0  0  0  0  0  0  0  0  0
  125.8141  122.1840   86.4300 H   0  0  0  0  0  0  0  0  0  0  0  0
  124.2258  122.7322   84.5897 H   0  0  0  0  0  0  0  0  0  0  0  0
  121.9513  122.4180   83.7780 H   0  0  0  0  0  0  0  0  0  0  0  0
  120.8934  122.0388   87.2470 H   0  0  0  0  0  0  0  0  0  0  0  0
  122.4815  121.4899   89.0891 H   0  0  0  0  0  0  0  0  0  0  0  0
  1  2  3  0
  2  3  1  0
  3  4  2  0
  4  5  1  0
  5  6  2  0
  6  7  1  0
  7  8  1  0
  8  9  2  0
  8 10  1  0
 10 11  1  0
 10 12  1  0
 10 13  1  0
  6 14  1  0
 14 15  2  0
 15  3  1  0
  4 16  1  0
  5 17  1  0
  7 18  1  0
 14 19  1  0
 15 20  1  0
M  END
>  <loss>  (4) 
0.4912216365337372

>  <score>  (4) 
3.3845858573913574

$$$$
RWWHDWGTLIGQBC-UHFFFAOYSA-N
     RDKit          3D

 20 20  0  0  0  0  0  0  0  0999 V2000
  125.9206  121.3083   89.8923 N   0  0  0  0  0  0  0  0  0  0  0  0
  125.1730  121.5148   89.0290 C   0  0  0  0  0  0  0  0  0  0  0  0
  124.2557  121.7719   87.9578 C   0  0  0  0  0  0  0  0  0  0  0  0
  124.7279  122.1871   86.7111 C   0  0  0  0  0  0  0  0  0  0  0  0
  123.8290  122.4370   85.6679 C   0  0  0  0  0  0  0  0  0  0  0  0
  122.4492  122.2761   85.8550 C   0  0  0  0  0  0  0  0  0  0  0  0
  121.6190  122.5506   84.7491 N   0  0  0  0  0  0  0  0  0  0  0  0
  120.5207  123.4188   84.6892 C   0  0  0  0  0  0  0  0  0  0  0  0
  120.0708  124.0190   85.6654 O   0  0  0  0  0  0  0  0  0  0  0  0
  119.9203  123.5667   83.2643 C   0  0  0  0  0  0  0  0  0  0  0  0
  120.1599  125.2051   82.6217 Cl  0  0  0  0  0  0  0  0  0  0  0  0
  118.1704  123.2023   83.3458 Cl  0  0  0  0  0  0  0  0  0  0  0  0
  120.7174  122.3740   82.1965 Cl  0  0  0  0  0  0  0  0  0  0  0  0
  121.9849  121.8608   87.1045 C   0  0  0  0  0  0  0  0  0  0  0  0
  122.8824  121.6098   88.1509 C   0  0  0  0  0  0  0  0  0  0  0  0
  125.8079  122.3179   86.5486 H   0  0  0  0  0  0  0  0  0  0  0  0
  124.2101  122.7638   84.6891 H   0  0  0  0  0  0  0  0  0  0  0  0
  121.8480  122.0514   83.8777 H   0  0  0  0  0  0  0  0  0  0  0  0
  120.9052  121.7297   87.2689 H   0  0  0  0  0  0  0  0  0  0  0  0
  122.5028  121.2830   89.1302 H   0  0  0  0  0  0  0  0  0  0  0  0
  1  2  3  0
  2  3  1  0
  3  4  2  0
  4  5  1  0
  5  6  2  0
  6  7  1  0
  7  8  1  0
  8  9  2  0
  8 10  1  0
 10 11  1  0
 10 12  1  0
 10 13  1  0
  6 14  1  0
 14 15  2  0
 15  3  1  0
  4 16  1  0
  5 17  1  0
  7 18  1  0
 14 19  1  0
 15 20  1  0
M  END
>  <loss>  (5) 
0.4926697611808777

>  <score>  (5) 
3.340984582901001

$$$$
RWWHDWGTLIGQBC-UHFFFAOYSA-N
     RDKit          3D

 20 20  0  0  0  0  0  0  0  0999 V2000
  125.8420  121.1881   89.8673 N   0  0  0  0  0  0  0  0  0  0  0  0
  125.1169  121.4496   88.9998 C   0  0  0  0  0  0  0  0  0  0  0  0
  124.2276  121.7742   87.9232 C   0  0  0  0  0  0  0  0  0  0  0  0
  122.8450  121.7056   88.1054 C   0  0  0  0  0  0  0  0  0  0  0  0
  121.9748  122.0226   87.0538 C   0  0  0  0  0  0  0  0  0  0  0  0
  122.4760  122.4107   85.8099 C   0  0  0  0  0  0  0  0  0  0  0  0
  121.6750  122.7472   84.6996 N   0  0  0  0  0  0  0  0  0  0  0  0
  120.4578  123.4406   84.6922 C   0  0  0  0  0  0  0  0  0  0  0  0
  120.0190  124.0592   85.6622 O   0  0  0  0  0  0  0  0  0  0  0  0
  119.7194  123.3938   83.3264 C   0  0  0  0  0  0  0  0  0  0  0  0
  119.5060  125.0755   82.7620 Cl  0  0  0  0  0  0  0  0  0  0  0  0
  118.1397  122.5940   83.4698 Cl  0  0  0  0  0  0  0  0  0  0  0  0
  120.7315  122.5038   82.1472 Cl  0  0  0  0  0  0  0  0  0  0  0  0
  123.8650  122.4782   85.6339 C   0  0  0  0  0  0  0  0  0  0  0  0
  124.7366  122.1622   86.6823 C   0  0  0  0  0  0  0  0  0  0  0  0
  122.4364  121.4010   89.0802 H   0  0  0  0  0  0  0  0  0  0  0  0
  120.8874  121.9652   87.2098 H   0  0  0  0  0  0  0  0  0  0  0  0
  122.0285  122.4461   83.7802 H   0  0  0  0  0  0  0  0  0  0  0  0
  124.2750  122.7833   84.6599 H   0  0  0  0  0  0  0  0  0  0  0  0
  125.8243  122.2195   86.5285 H   0  0  0  0  0  0  0  0  0  0  0  0
  1  2  3  0
  2  3  1  0
  3  4  2  0
  4  5  1  0
  5  6  2  0
  6  7  1  0
  7  8  1  0
  8  9  2  0
  8 10  1  0
 10 11  1  0
 10 12  1  0
 10 13  1  0
  6 14  1  0
 14 15  2  0
 15  3  1  0
  4 16  1  0
  5 17  1  0
  7 18  1  0
 14 19  1  0
 15 20  1  0
M  END
>  <loss>  (6) 
0.48889780044555664

>  <score>  (6) 
3.2985072135925293

$$$$
RWWHDWGTLIGQBC-UHFFFAOYSA-N
     RDKit          3D

 20 20  0  0  0  0  0  0  0  0999 V2000
  125.9726  121.3212   89.8276 N   0  0  0  0  0  0  0  0  0  0  0  0
  125.2083  121.5293   88.9794 C   0  0  0  0  0  0  0  0  0  0  0  0
  124.2705  121.7882   87.9266 C   0  0  0  0  0  0  0  0  0  0  0  0
  124.7195  122.1874   86.6662 C   0  0  0  0  0  0  0  0  0  0  0  0
  123.8005  122.4391   85.6411 C   0  0  0  0  0  0  0  0  0  0  0  0
  122.4234  122.2959   85.8601 C   0  0  0  0  0  0  0  0  0  0  0  0
  121.5720  122.5709   84.7706 N   0  0  0  0  0  0  0  0  0  0  0  0
  120.5134  123.4872   84.7126 C   0  0  0  0  0  0  0  0  0  0  0  0
  120.2085  124.2376   85.6398 O   0  0  0  0  0  0  0  0  0  0  0  0
  119.7565  123.4798   83.3563 C   0  0  0  0  0  0  0  0  0  0  0  0
  119.4306  125.1285   82.7816 Cl  0  0  0  0  0  0  0  0  0  0  0  0
  118.2124  122.6022   83.5737 Cl  0  0  0  0  0  0  0  0  0  0  0  0
  120.7617  122.6086   82.1611 Cl  0  0  0  0  0  0  0  0  0  0  0  0
  121.9824  121.8965   87.1231 C   0  0  0  0  0  0  0  0  0  0  0  0
  122.9000  121.6437   88.1515 C   0  0  0  0  0  0  0  0  0  0  0  0
  125.7971  122.3042   86.4787 H   0  0  0  0  0  0  0  0  0  0  0  0
  124.1634  122.7533   84.6514 H   0  0  0  0  0  0  0  0  0  0  0  0
  121.7500  122.0317   83.9112 H   0  0  0  0  0  0  0  0  0  0  0  0
  120.9051  121.7794   87.3126 H   0  0  0  0  0  0  0  0  0  0  0  0
  122.5386  121.3296   89.1418 H   0  0  0  0  0  0  0  0  0  0  0  0
  1  2  3  0
  2  3  1  0
  3  4  2  0
  4  5  1  0
  5  6  2  0
  6  7  1  0
  7  8  1  0
  8  9  2  0
  8 10  1  0
 10 11  1  0
 10 12  1  0
 10 13  1  0
  6 14  1  0
 14 15  2  0
 15  3  1  0
  4 16  1  0
  5 17  1  0
  7 18  1  0
 14 19  1  0
 15 20  1  0
M  END
>  <loss>  (7) 
0.4937033951282501

>  <score>  (7) 
3.3189914226531982

$$$$
RWWHDWGTLIGQBC-UHFFFAOYSA-N
     RDKit          3D

 20 20  0  0  0  0  0  0  0  0999 V2000
  125.9565  121.2977   89.8262 N   0  0  0  0  0  0  0  0  0  0  0  0
  125.1965  121.5110   88.9754 C   0  0  0  0  0  0  0  0  0  0  0  0
  124.2639  121.7762   87.9195 C   0  0  0  0  0  0  0  0  0  0  0  0
  124.7194  122.1808   86.6632 C   0  0  0  0  0  0  0  0  0  0  0  0
  123.8056  122.4387   85.6350 C   0  0  0  0  0  0  0  0  0  0  0  0
  122.4274  122.2960   85.8468 C   0  0  0  0  0  0  0  0  0  0  0  0
  121.5814  122.5777   84.7547 N   0  0  0  0  0  0  0  0  0  0  0  0
  120.5273  123.4985   84.6948 C   0  0  0  0  0  0  0  0  0  0  0  0
  120.1812  124.2023   85.6440 O   0  0  0  0  0  0  0  0  0  0  0  0
  119.8479  123.5813   83.3004 C   0  0  0  0  0  0  0  0  0  0  0  0
  120.8360  122.6338   82.1519 Cl  0  0  0  0  0  0  0  0  0  0  0  0
  119.7113  125.2623   82.7428 Cl  0  0  0  0  0  0  0  0  0  0  0  0
  118.2148  122.8546   83.4068 Cl  0  0  0  0  0  0  0  0  0  0  0  0
  121.9798  121.8918   87.1059 C   0  0  0  0  0  0  0  0  0  0  0  0
  122.8922  121.6328   88.1373 C   0  0  0  0  0  0  0  0  0  0  0  0
  125.7980  122.2970   86.4813 H   0  0  0  0  0  0  0  0  0  0  0  0
  124.1736  122.7574   84.6485 H   0  0  0  0  0  0  0  0  0  0  0  0
  121.7605  122.0401   83.8946 H   0  0  0  0  0  0  0  0  0  0  0  0
  120.9015  121.7756   87.2899 H   0  0  0  0  0  0  0  0  0  0  0  0
  122.5257  121.3146   89.1245 H   0  0  0  0  0  0  0  0  0  0  0  0
  1  2  3  0
  2  3  1  0
  3  4  2  0
  4  5  1  0
  5  6  2  0
  6  7  1  0
  7  8  1  0
  8  9  2  0
  8 10  1  0
 10 11  1  0
 10 12  1  0
 10 13  1  0
  6 14  1  0
 14 15  2  0
 15  3  1  0
  4 16  1  0
  5 17  1  0
  7 18  1  0
 14 19  1  0
 15 20  1  0
M  END
>  <loss>  (8) 
0.4935944378376007

>  <score>  (8) 
3.3118643760681152

$$$$
RWWHDWGTLIGQBC-UHFFFAOYSA-N
     RDKit          3D

 20 20  0  0  0  0  0  0  0  0999 V2000
  125.8257  121.1596   89.8679 N   0  0  0  0  0  0  0  0  0  0  0  0
  125.1024  121.4329   89.0025 C   0  0  0  0  0  0  0  0  0  0  0  0
  124.2154  121.7720   87.9286 C   0  0  0  0  0  0  0  0  0  0  0  0
  124.7270  122.1493   86.6855 C   0  0  0  0  0  0  0  0  0  0  0  0
  123.8576  122.4795   85.6397 C   0  0  0  0  0  0  0  0  0  0  0  0
  122.4682  122.4373   85.8205 C   0  0  0  0  0  0  0  0  0  0  0  0
  121.6696  122.7866   84.7124 N   0  0  0  0  0  0  0  0  0  0  0  0
  120.4174  123.4149   84.7152 C   0  0  0  0  0  0  0  0  0  0  0  0
  119.9409  123.9828   85.6983 O   0  0  0  0  0  0  0  0  0  0  0  0
  119.6890  123.3631   83.3442 C   0  0  0  0  0  0  0  0  0  0  0  0
  120.8742  123.7904   82.0770 Cl  0  0  0  0  0  0  0  0  0  0  0  0
  118.3145  124.4873   83.2958 Cl  0  0  0  0  0  0  0  0  0  0  0  0
  119.1040  121.6946   83.0608 Cl  0  0  0  0  0  0  0  0  0  0  0  0
  121.9644  122.0597   87.0666 C   0  0  0  0  0  0  0  0  0  0  0  0
  122.8324  121.7285   88.1156 C   0  0  0  0  0  0  0  0  0  0  0  0
  125.8150  122.1870   86.5279 H   0  0  0  0  0  0  0  0  0  0  0  0
  124.2696  122.7759   84.6638 H   0  0  0  0  0  0  0  0  0  0  0  0
  122.0542  122.5507   83.7865 H   0  0  0  0  0  0  0  0  0  0  0  0
  120.8767  122.0220   87.2263 H   0  0  0  0  0  0  0  0  0  0  0  0
  122.4218  121.4324   89.0922 H   0  0  0  0  0  0  0  0  0  0  0  0
  1  2  3  0
  2  3  1  0
  3  4  2  0
  4  5  1  0
  5  6  2  0
  6  7  1  0
  7  8  1  0
  8  9  2  0
  8 10  1  0
 10 11  1  0
 10 12  1  0
 10 13  1  0
  6 14  1  0
 14 15  2  0
 15  3  1  0
  4 16  1  0
  5 17  1  0
  7 18  1  0
 14 19  1  0
 15 20  1  0
M  END
>  <loss>  (9) 
0.4956524670124054

>  <score>  (9) 
3.270195245742798

$$$$
RWWHDWGTLIGQBC-UHFFFAOYSA-N
     RDKit          3D

 20 20  0  0  0  0  0  0  0  0999 V2000
  126.0206  121.0895   89.6440 N   0  0  0  0  0  0  0  0  0  0  0  0
  125.1938  121.4049   88.8932 C   0  0  0  0  0  0  0  0  0  0  0  0
  124.1667  121.7931   87.9714 C   0  0  0  0  0  0  0  0  0  0  0  0
  124.4964  122.1884   86.6735 C   0  0  0  0  0  0  0  0  0  0  0  0
  123.4933  122.5680   85.7717 C   0  0  0  0  0  0  0  0  0  0  0  0
  122.1513  122.5572   86.1566 C   0  0  0  0  0  0  0  0  0  0  0  0
  121.0799  122.9219   85.3159 N   0  0  0  0  0  0  0  0  0  0  0  0
  121.0158  122.8478   83.9185 C   0  0  0  0  0  0  0  0  0  0  0  0
  121.8972  122.3457   83.2205 O   0  0  0  0  0  0  0  0  0  0  0  0
  119.7042  123.4270   83.3210 C   0  0  0  0  0  0  0  0  0  0  0  0
  119.6177  125.1759   83.6959 Cl  0  0  0  0  0  0  0  0  0  0  0  0
  118.3309  122.5927   84.1026 Cl  0  0  0  0  0  0  0  0  0  0  0  0
  119.6349  123.1964   81.5610 Cl  0  0  0  0  0  0  0  0  0  0  0  0
  121.8272  122.1586   87.4608 C   0  0  0  0  0  0  0  0  0  0  0  0
  122.8268  121.7789   88.3637 C   0  0  0  0  0  0  0  0  0  0  0  0
  125.5498  122.2019   86.3571 H   0  0  0  0  0  0  0  0  0  0  0  0
  123.7656  122.8772   84.7518 H   0  0  0  0  0  0  0  0  0  0  0  0
  120.2407  123.2882   85.7875 H   0  0  0  0  0  0  0  0  0  0  0  0
  120.7741  122.1440   87.7785 H   0  0  0  0  0  0  0  0  0  0  0  0
  122.5564  121.4689   89.3839 H   0  0  0  0  0  0  0  0  0  0  0  0
  1  2  3  0
  2  3  1  0
  3  4  2  0
  4  5  1  0
  5  6  2  0
  6  7  1  0
  7  8  1  0
  8  9  2  0
  8 10  1  0
 10 11  1  0
 10 12  1  0
 10 13  1  0
  6 14  1  0
 14 15  2  0
 15  3  1  0
  4 16  1  0
  5 17  1  0
  7 18  1  0
 14 19  1  0
 15 20  1  0
M  END
>  <loss>  (10) 
0.48393791913986206

>  <score>  (10) 
3.1803205013275146

$$$$
RWWHDWGTLIGQBC-UHFFFAOYSA-N
     RDKit          3D

 20 20  0  0  0  0  0  0  0  0999 V2000
  125.8096  121.1276   89.8412 N   0  0  0  0  0  0  0  0  0  0  0  0
  125.0881  121.4211   88.9809 C   0  0  0  0  0  0  0  0  0  0  0  0
  124.2033  121.7850   87.9133 C   0  0  0  0  0  0  0  0  0  0  0  0
  124.7165  122.1497   86.6670 C   0  0  0  0  0  0  0  0  0  0  0  0
  123.8492  122.5043   85.6274 C   0  0  0  0  0  0  0  0  0  0  0  0
  122.4605  122.4994   85.8177 C   0  0  0  0  0  0  0  0  0  0  0  0
  121.6640  122.8708   84.7153 N   0  0  0  0  0  0  0  0  0  0  0  0
  120.3388  123.3262   84.7227 C   0  0  0  0  0  0  0  0  0  0  0  0
  119.7472  123.6890   85.7396 O   0  0  0  0  0  0  0  0  0  0  0  0
  119.6778  123.3429   83.3172 C   0  0  0  0  0  0  0  0  0  0  0  0
  118.1813  124.2994   83.3109 Cl  0  0  0  0  0  0  0  0  0  0  0  0
  119.3160  121.6565   82.8409 Cl  0  0  0  0  0  0  0  0  0  0  0  0
  120.8480  124.0401   82.1585 Cl  0  0  0  0  0  0  0  0  0  0  0  0
  121.9551  122.1336   87.0667 C   0  0  0  0  0  0  0  0  0  0  0  0
  122.8209  121.7781   88.1095 C   0  0  0  0  0  0  0  0  0  0  0  0
  125.8040  122.1585   86.5021 H   0  0  0  0  0  0  0  0  0  0  0  0
  124.2625  122.7903   84.6490 H   0  0  0  0  0  0  0  0  0  0  0  0
  122.1114  122.7986   83.7903 H   0  0  0  0  0  0  0  0  0  0  0  0
  120.8679  122.1244   87.2336 H   0  0  0  0  0  0  0  0  0  0  0  0
  122.4091  121.4918   89.0885 H   0  0  0  0  0  0  0  0  0  0  0  0
  1  2  3  0
  2  3  1  0
  3  4  2  0
  4  5  1  0
  5  6  2  0
  6  7  1  0
  7  8  1  0
  8  9  2  0
  8 10  1  0
 10 11  1  0
 10 12  1  0
 10 13  1  0
  6 14  1  0
 14 15  2  0
 15  3  1  0
  4 16  1  0
  5 17  1  0
  7 18  1  0
 14 19  1  0
 15 20  1  0
M  END
>  <loss>  (11) 
0.49036985635757446

>  <score>  (11) 
3.1924257278442383

$$$$
RWWHDWGTLIGQBC-UHFFFAOYSA-N
     RDKit          3D

 20 20  0  0  0  0  0  0  0  0999 V2000
  125.7967  121.0933   89.8627 N   0  0  0  0  0  0  0  0  0  0  0  0
  125.0864  121.3968   88.9965 C   0  0  0  0  0  0  0  0  0  0  0  0
  124.2156  121.7727   87.9216 C   0  0  0  0  0  0  0  0  0  0  0  0
  122.8316  121.7828   88.1058 C   0  0  0  0  0  0  0  0  0  0  0  0
  121.9794  122.1501   87.0558 C   0  0  0  0  0  0  0  0  0  0  0  0
  122.5002  122.5106   85.8116 C   0  0  0  0  0  0  0  0  0  0  0  0
  121.7181  122.8935   84.7028 N   0  0  0  0  0  0  0  0  0  0  0  0
  120.3663  123.2605   84.6859 C   0  0  0  0  0  0  0  0  0  0  0  0
  119.6993  123.4554   85.7024 O   0  0  0  0  0  0  0  0  0  0  0  0
  119.7847  123.4407   83.2568 C   0  0  0  0  0  0  0  0  0  0  0  0
  120.6176  124.8273   82.4981 Cl  0  0  0  0  0  0  0  0  0  0  0  0
  118.0328  123.7319   83.3011 Cl  0  0  0  0  0  0  0  0  0  0  0  0
  120.1177  121.9628   82.3019 Cl  0  0  0  0  0  0  0  0  0  0  0  0
  123.8905  122.4991   85.6337 C   0  0  0  0  0  0  0  0  0  0  0  0
  124.7442  122.1327   86.6804 C   0  0  0  0  0  0  0  0  0  0  0  0
  122.4077  121.5007   89.0808 H   0  0  0  0  0  0  0  0  0  0  0  0
  120.8907  122.1545   87.2133 H   0  0  0  0  0  0  0  0  0  0  0  0
  122.2003  122.9049   83.7928 H   0  0  0  0  0  0  0  0  0  0  0  0
  124.3158  122.7815   84.6594 H   0  0  0  0  0  0  0  0  0  0  0  0
  125.8331  122.1282   86.5251 H   0  0  0  0  0  0  0  0  0  0  0  0
  1  2  3  0
  2  3  1  0
  3  4  2  0
  4  5  1  0
  5  6  2  0
  6  7  1  0
  7  8  1  0
  8  9  2  0
  8 10  1  0
 10 11  1  0
 10 12  1  0
 10 13  1  0
  6 14  1  0
 14 15  2  0
 15  3  1  0
  4 16  1  0
  5 17  1  0
  7 18  1  0
 14 19  1  0
 15 20  1  0
M  END
>  <loss>  (12) 
0.48942726850509644

>  <score>  (12) 
3.1872448921203613

$$$$
RWWHDWGTLIGQBC-UHFFFAOYSA-N
     RDKit          3D

 20 20  0  0  0  0  0  0  0  0999 V2000
  125.7645  121.0724   89.8116 N   0  0  0  0  0  0  0  0  0  0  0  0
  125.0570  121.3923   88.9490 C   0  0  0  0  0  0  0  0  0  0  0  0
  124.1896  121.7879   87.8785 C   0  0  0  0  0  0  0  0  0  0  0  0
  122.8151  121.9093   88.0925 C   0  0  0  0  0  0  0  0  0  0  0  0
  121.9663  122.2959   87.0468 C   0  0  0  0  0  0  0  0  0  0  0  0
  122.4808  122.5647   85.7770 C   0  0  0  0  0  0  0  0  0  0  0  0
  121.7015  122.9593   84.6704 N   0  0  0  0  0  0  0  0  0  0  0  0
  120.3263  123.2236   84.6337 C   0  0  0  0  0  0  0  0  0  0  0  0
  119.6440  123.4294   85.6378 O   0  0  0  0  0  0  0  0  0  0  0  0
  119.7369  123.2741   83.1974 C   0  0  0  0  0  0  0  0  0  0  0  0
  120.3163  124.7752   82.4208 Cl  0  0  0  0  0  0  0  0  0  0  0  0
  117.9609  123.2476   83.2234 Cl  0  0  0  0  0  0  0  0  0  0  0  0
  120.3390  121.8647   82.2709 Cl  0  0  0  0  0  0  0  0  0  0  0  0
  123.8616  122.4417   85.5692 C   0  0  0  0  0  0  0  0  0  0  0  0
  124.7119  122.0558   86.6116 C   0  0  0  0  0  0  0  0  0  0  0  0
  122.3962  121.7002   89.0878 H   0  0  0  0  0  0  0  0  0  0  0  0
  120.8852  122.3884   87.2278 H   0  0  0  0  0  0  0  0  0  0  0  0
  122.2057  123.0664   83.7786 H   0  0  0  0  0  0  0  0  0  0  0  0
  124.2820  122.6512   84.5745 H   0  0  0  0  0  0  0  0  0  0  0  0
  125.7933  121.9633   86.4326 H   0  0  0  0  0  0  0  0  0  0  0  0
  1  2  3  0
  2  3  1  0
  3  4  2  0
  4  5  1  0
  5  6  2  0
  6  7  1  0
  7  8  1  0
  8  9  2  0
  8 10  1  0
 10 11  1  0
 10 12  1  0
 10 13  1  0
  6 14  1  0
 14 15  2  0
 15  3  1  0
  4 16  1  0
  5 17  1  0
  7 18  1  0
 14 19  1  0
 15 20  1  0
M  END
>  <loss>  (13) 
0.49361348152160645

>  <score>  (13) 
3.2026736736297607

$$$$
RWWHDWGTLIGQBC-UHFFFAOYSA-N
     RDKit          3D

 20 20  0  0  0  0  0  0  0  0999 V2000
  125.9894  121.0819   89.6101 N   0  0  0  0  0  0  0  0  0  0  0  0
  125.1682  121.4117   88.8593 C   0  0  0  0  0  0  0  0  0  0  0  0
  124.1480  121.8176   87.9376 C   0  0  0  0  0  0  0  0  0  0  0  0
  124.4866  122.2300   86.6474 C   0  0  0  0  0  0  0  0  0  0  0  0
  123.4902  122.6270   85.7456 C   0  0  0  0  0  0  0  0  0  0  0  0
  122.1461  122.6167   86.1229 C   0  0  0  0  0  0  0  0  0  0  0  0
  121.0810  122.9983   85.2817 N   0  0  0  0  0  0  0  0  0  0  0  0
  120.9727  122.8278   83.8954 C   0  0  0  0  0  0  0  0  0  0  0  0
  121.8218  122.2580   83.2095 O   0  0  0  0  0  0  0  0  0  0  0  0
  119.6559  123.3938   83.2967 C   0  0  0  0  0  0  0  0  0  0  0  0
  119.6082  125.1634   83.5670 Cl  0  0  0  0  0  0  0  0  0  0  0  0
  118.2896  122.6331   84.1612 Cl  0  0  0  0  0  0  0  0  0  0  0  0
  119.5372  123.0590   81.5562 Cl  0  0  0  0  0  0  0  0  0  0  0  0
  121.8129  122.2010   87.4194 C   0  0  0  0  0  0  0  0  0  0  0  0
  122.8058  121.8039   88.3223 C   0  0  0  0  0  0  0  0  0  0  0  0
  125.5418  122.2433   86.3369 H   0  0  0  0  0  0  0  0  0  0  0  0
  123.7695  122.9495   84.7317 H   0  0  0  0  0  0  0  0  0  0  0  0
  120.2840  123.4593   85.7434 H   0  0  0  0  0  0  0  0  0  0  0  0
  120.7581  122.1866   87.7311 H   0  0  0  0  0  0  0  0  0  0  0  0
  122.5285  121.4806   89.3365 H   0  0  0  0  0  0  0  0  0  0  0  0
  1  2  3  0
  2  3  1  0
  3  4  2  0
  4  5  1  0
  5  6  2  0
  6  7  1  0
  7  8  1  0
  8  9  2  0
  8 10  1  0
 10 11  1  0
 10 12  1  0
 10 13  1  0
  6 14  1  0
 14 15  2  0
 15  3  1  0
  4 16  1  0
  5 17  1  0
  7 18  1  0
 14 19  1  0
 15 20  1  0
M  END
>  <loss>  (14) 
0.490873783826828

>  <score>  (14) 
3.1625375747680664

$$$$
RWWHDWGTLIGQBC-UHFFFAOYSA-N
     RDKit          3D

 20 20  0  0  0  0  0  0  0  0999 V2000
  125.7451  121.0135   89.8417 N   0  0  0  0  0  0  0  0  0  0  0  0
  125.0435  121.3577   88.9838 C   0  0  0  0  0  0  0  0  0  0  0  0
  124.1833  121.7840   87.9191 C   0  0  0  0  0  0  0  0  0  0  0  0
  124.7207  122.1494   86.6834 C   0  0  0  0  0  0  0  0  0  0  0  0
  123.8774  122.5650   85.6466 C   0  0  0  0  0  0  0  0  0  0  0  0
  122.4888  122.6208   85.8292 C   0  0  0  0  0  0  0  0  0  0  0  0
  121.7175  123.0515   84.7305 N   0  0  0  0  0  0  0  0  0  0  0  0
  120.3216  123.1077   84.6252 C   0  0  0  0  0  0  0  0  0  0  0  0
  119.5588  122.9655   85.5812 O   0  0  0  0  0  0  0  0  0  0  0  0
  119.8146  123.4036   83.1871 C   0  0  0  0  0  0  0  0  0  0  0  0
  120.2666  125.0841   82.7812 Cl  0  0  0  0  0  0  0  0  0  0  0  0
  118.0542  123.2004   83.0641 Cl  0  0  0  0  0  0  0  0  0  0  0  0
  120.6242  122.2869   82.0452 Cl  0  0  0  0  0  0  0  0  0  0  0  0
  121.9591  122.2544   87.0679 C   0  0  0  0  0  0  0  0  0  0  0  0
  122.8009  121.8379   88.1079 C   0  0  0  0  0  0  0  0  0  0  0  0
  125.8085  122.1106   86.5244 H   0  0  0  0  0  0  0  0  0  0  0  0
  124.3097  122.8513   84.6765 H   0  0  0  0  0  0  0  0  0  0  0  0
  122.2455  123.3635   83.9030 H   0  0  0  0  0  0  0  0  0  0  0  0
  120.8717  122.2931   87.2289 H   0  0  0  0  0  0  0  0  0  0  0  0
  122.3701  121.5518   89.0787 H   0  0  0  0  0  0  0  0  0  0  0  0
  1  2  3  0
  2  3  1  0
  3  4  2  0
  4  5  1  0
  5  6  2  0
  6  7  1  0
  7  8  1  0
  8  9  2  0
  8 10  1  0
 10 11  1  0
 10 12  1  0
 10 13  1  0
  6 14  1  0
 14 15  2  0
 15  3  1  0
  4 16  1  0
  5 17  1  0
  7 18  1  0
 14 19  1  0
 15 20  1  0
M  END
>  <loss>  (15) 
0.48913437128067017

>  <score>  (15) 
3.1355361938476562

$$$$
RWWHDWGTLIGQBC-UHFFFAOYSA-N
     RDKit          3D

 20 20  0  0  0  0  0  0  0  0999 V2000
  125.9898  121.0967   89.6637 N   0  0  0  0  0  0  0  0  0  0  0  0
  125.1751  121.4216   88.9039 C   0  0  0  0  0  0  0  0  0  0  0  0
  124.1628  121.8215   87.9708 C   0  0  0  0  0  0  0  0  0  0  0  0
  124.5147  122.2541   86.6908 C   0  0  0  0  0  0  0  0  0  0  0  0
  123.5261  122.6452   85.7780 C   0  0  0  0  0  0  0  0  0  0  0  0
  122.1766  122.6088   86.1339 C   0  0  0  0  0  0  0  0  0  0  0  0
  121.1186  122.9826   85.2803 N   0  0  0  0  0  0  0  0  0  0  0  0
  121.0260  122.8080   83.8935 C   0  0  0  0  0  0  0  0  0  0  0  0
  121.8389  122.1625   83.2312 O   0  0  0  0  0  0  0  0  0  0  0  0
  119.7730  123.4740   83.2613 C   0  0  0  0  0  0  0  0  0  0  0  0
  119.5257  122.9333   81.5873 Cl  0  0  0  0  0  0  0  0  0  0  0  0
  118.3583  123.0380   84.2616 Cl  0  0  0  0  0  0  0  0  0  0  0  0
  119.9834  125.2522   83.2869 Cl  0  0  0  0  0  0  0  0  0  0  0  0
  121.8302  122.1728   87.4203 C   0  0  0  0  0  0  0  0  0  0  0  0
  122.8153  121.7815   88.3341 C   0  0  0  0  0  0  0  0  0  0  0  0
  125.5742  122.2881   86.3971 H   0  0  0  0  0  0  0  0  0  0  0  0
  123.8158  122.9838   84.7723 H   0  0  0  0  0  0  0  0  0  0  0  0
  120.3144  123.4408   85.7323 H   0  0  0  0  0  0  0  0  0  0  0  0
  120.7710  122.1376   87.7151 H   0  0  0  0  0  0  0  0  0  0  0  0
  122.5275  121.4421   89.3401 H   0  0  0  0  0  0  0  0  0  0  0  0
  1  2  3  0
  2  3  1  0
  3  4  2  0
  4  5  1  0
  5  6  2  0
  6  7  1  0
  7  8  1  0
  8  9  2  0
  8 10  1  0
 10 11  1  0
 10 12  1  0
 10 13  1  0
  6 14  1  0
 14 15  2  0
 15  3  1  0
  4 16  1  0
  5 17  1  0
  7 18  1  0
 14 19  1  0
 15 20  1  0
M  END
>  <loss>  (16) 
0.49019286036491394

>  <score>  (16) 
3.1362624168395996

$$$$
RWWHDWGTLIGQBC-UHFFFAOYSA-N
     RDKit          3D

 20 20  0  0  0  0  0  0  0  0999 V2000
  125.9766  121.0970   89.6047 N   0  0  0  0  0  0  0  0  0  0  0  0
  125.1578  121.4266   88.8512 C   0  0  0  0  0  0  0  0  0  0  0  0
  124.1406  121.8324   87.9261 C   0  0  0  0  0  0  0  0  0  0  0  0
  124.4816  122.2246   86.6302 C   0  0  0  0  0  0  0  0  0  0  0  0
  123.4881  122.6215   85.7251 C   0  0  0  0  0  0  0  0  0  0  0  0
  122.1446  122.6312   86.1048 C   0  0  0  0  0  0  0  0  0  0  0  0
  121.0825  123.0142   85.2605 N   0  0  0  0  0  0  0  0  0  0  0  0
  120.9887  122.8666   83.8706 C   0  0  0  0  0  0  0  0  0  0  0  0
  121.8784  122.3763   83.1748 O   0  0  0  0  0  0  0  0  0  0  0  0
  119.6343  123.3467   83.2806 C   0  0  0  0  0  0  0  0  0  0  0  0
  119.5939  125.1369   83.3003 Cl  0  0  0  0  0  0  0  0  0  0  0  0
  118.3283  122.7207   84.3271 Cl  0  0  0  0  0  0  0  0  0  0  0  0
  119.4100  122.7694   81.6157 Cl  0  0  0  0  0  0  0  0  0  0  0  0
  121.8091  122.2357   87.4070 C   0  0  0  0  0  0  0  0  0  0  0  0
  122.7991  121.8388   88.3132 C   0  0  0  0  0  0  0  0  0  0  0  0
  125.5363  122.2220   86.3178 H   0  0  0  0  0  0  0  0  0  0  0  0
  123.7692  122.9279   84.7068 H   0  0  0  0  0  0  0  0  0  0  0  0
  120.2757  123.4572   85.7228 H   0  0  0  0  0  0  0  0  0  0  0  0
  120.7548  122.2373   87.7206 H   0  0  0  0  0  0  0  0  0  0  0  0
  122.5199  121.5315   89.3318 H   0  0  0  0  0  0  0  0  0  0  0  0
  1  2  3  0
  2  3  1  0
  3  4  2  0
  4  5  1  0
  5  6  2  0
  6  7  1  0
  7  8  1  0
  8  9  2  0
  8 10  1  0
 10 11  1  0
 10 12  1  0
 10 13  1  0
  6 14  1  0
 14 15  2  0
 15  3  1  0
  4 16  1  0
  5 17  1  0
  7 18  1  0
 14 19  1  0
 15 20  1  0
M  END
>  <loss>  (17) 
0.4896058440208435

>  <score>  (17) 
3.1270320415496826

$$$$
RWWHDWGTLIGQBC-UHFFFAOYSA-N
     RDKit          3D

 20 20  0  0  0  0  0  0  0  0999 V2000
  125.7729  121.0649   89.8485 N   0  0  0  0  0  0  0  0  0  0  0  0
  125.0605  121.3768   88.9871 C   0  0  0  0  0  0  0  0  0  0  0  0
  124.1871  121.7634   87.9181 C   0  0  0  0  0  0  0  0  0  0  0  0
  122.8037  121.7765   88.1072 C   0  0  0  0  0  0  0  0  0  0  0  0
  121.9490  122.1542   87.0630 C   0  0  0  0  0  0  0  0  0  0  0  0
  122.4666  122.5220   85.8196 C   0  0  0  0  0  0  0  0  0  0  0  0
  121.6818  122.9154   84.7164 N   0  0  0  0  0  0  0  0  0  0  0  0
  120.3174  123.2324   84.6973 C   0  0  0  0  0  0  0  0  0  0  0  0
  119.6626  123.4908   85.7076 O   0  0  0  0  0  0  0  0  0  0  0  0
  119.7033  123.2685   83.2709 C   0  0  0  0  0  0  0  0  0  0  0  0
  120.6334  124.4490   82.3047 Cl  0  0  0  0  0  0  0  0  0  0  0  0
  117.9890  123.7319   83.3140 Cl  0  0  0  0  0  0  0  0  0  0  0  0
  119.8624  121.6472   82.5272 Cl  0  0  0  0  0  0  0  0  0  0  0  0
  123.8562  122.5073   85.6367 C   0  0  0  0  0  0  0  0  0  0  0  0
  124.7124  122.1306   86.6777 C   0  0  0  0  0  0  0  0  0  0  0  0
  122.3824  121.4888   89.0817 H   0  0  0  0  0  0  0  0  0  0  0  0
  120.8610  122.1609   87.2244 H   0  0  0  0  0  0  0  0  0  0  0  0
  122.1723  122.9775   83.8129 H   0  0  0  0  0  0  0  0  0  0  0  0
  124.2790  122.7954   84.6629 H   0  0  0  0  0  0  0  0  0  0  0  0
  125.8008  122.1238   86.5184 H   0  0  0  0  0  0  0  0  0  0  0  0
  1  2  3  0
  2  3  1  0
  3  4  2  0
  4  5  1  0
  5  6  2  0
  6  7  1  0
  7  8  1  0
  8  9  2  0
  8 10  1  0
 10 11  1  0
 10 12  1  0
 10 13  1  0
  6 14  1  0
 14 15  2  0
 15  3  1  0
  4 16  1  0
  5 17  1  0
  7 18  1  0
 14 19  1  0
 15 20  1  0
M  END
>  <loss>  (18) 
0.49419236183166504

>  <score>  (18) 
3.1406209468841553

$$$$
RWWHDWGTLIGQBC-UHFFFAOYSA-N
     RDKit          3D

 20 20  0  0  0  0  0  0  0  0999 V2000
  125.7896  121.0647   89.7894 N   0  0  0  0  0  0  0  0  0  0  0  0
  125.0801  121.3915   88.9311 C   0  0  0  0  0  0  0  0  0  0  0  0
  124.2102  121.7961   87.8659 C   0  0  0  0  0  0  0  0  0  0  0  0
  122.8297  121.8557   88.0667 C   0  0  0  0  0  0  0  0  0  0  0  0
  121.9784  122.2511   87.0263 C   0  0  0  0  0  0  0  0  0  0  0  0
  122.4965  122.5904   85.7750 C   0  0  0  0  0  0  0  0  0  0  0  0
  121.7152  122.9987   84.6749 N   0  0  0  0  0  0  0  0  0  0  0  0
  120.3260  123.1706   84.6195 C   0  0  0  0  0  0  0  0  0  0  0  0
  119.5958  123.1504   85.6108 O   0  0  0  0  0  0  0  0  0  0  0  0
  119.7843  123.4310   83.1871 C   0  0  0  0  0  0  0  0  0  0  0  0
  120.4268  125.0047   82.6370 Cl  0  0  0  0  0  0  0  0  0  0  0  0
  118.0082  123.4545   83.1593 Cl  0  0  0  0  0  0  0  0  0  0  0  0
  120.3789  122.1413   82.0962 Cl  0  0  0  0  0  0  0  0  0  0  0  0
  123.8833  122.5291   85.5804 C   0  0  0  0  0  0  0  0  0  0  0  0
  124.7361  122.1346   86.6176 C   0  0  0  0  0  0  0  0  0  0  0  0
  122.4079  121.5908   89.0475 H   0  0  0  0  0  0  0  0  0  0  0  0
  120.8926  122.2945   87.1968 H   0  0  0  0  0  0  0  0  0  0  0  0
  122.2293  123.1950   83.8042 H   0  0  0  0  0  0  0  0  0  0  0  0
  124.3066  122.7944   84.6003 H   0  0  0  0  0  0  0  0  0  0  0  0
  125.8222  122.0912   86.4491 H   0  0  0  0  0  0  0  0  0  0  0  0
  1  2  3  0
  2  3  1  0
  3  4  2  0
  4  5  1  0
  5  6  2  0
  6  7  1  0
  7  8  1  0
  8  9  2  0
  8 10  1  0
 10 11  1  0
 10 12  1  0
 10 13  1  0
  6 14  1  0
 14 15  2  0
 15  3  1  0
  4 16  1  0
  5 17  1  0
  7 18  1  0
 14 19  1  0
 15 20  1  0
M  END
>  <loss>  (19) 
0.4906928539276123

>  <score>  (19) 
3.1147191524505615

$$$$
RWWHDWGTLIGQBC-UHFFFAOYSA-N
     RDKit          3D

 20 20  0  0  0  0  0  0  0  0999 V2000
  125.9520  121.0366   89.6983 N   0  0  0  0  0  0  0  0  0  0  0  0
  125.1425  121.3733   88.9380 C   0  0  0  0  0  0  0  0  0  0  0  0
  124.1366  121.7873   88.0042 C   0  0  0  0  0  0  0  0  0  0  0  0
  124.4986  122.2644   86.7429 C   0  0  0  0  0  0  0  0  0  0  0  0
  123.5162  122.6693   85.8294 C   0  0  0  0  0  0  0  0  0  0  0  0
  122.1629  122.6024   86.1659 C   0  0  0  0  0  0  0  0  0  0  0  0
  121.1107  122.9872   85.3101 N   0  0  0  0  0  0  0  0  0  0  0  0
  121.0133  122.8019   83.9250 C   0  0  0  0  0  0  0  0  0  0  0  0
  121.8320  122.1637   83.2626 O   0  0  0  0  0  0  0  0  0  0  0  0
  119.7487  123.4475   83.2950 C   0  0  0  0  0  0  0  0  0  0  0  0
  119.8865  125.2291   83.4112 Cl  0  0  0  0  0  0  0  0  0  0  0  0
  118.3304  122.9077   84.2383 Cl  0  0  0  0  0  0  0  0  0  0  0  0
  119.5608  122.9798   81.5916 Cl  0  0  0  0  0  0  0  0  0  0  0  0
  121.8063  122.1218   87.4335 C   0  0  0  0  0  0  0  0  0  0  0  0
  122.7852  121.7167   88.3480 C   0  0  0  0  0  0  0  0  0  0  0  0
  125.5612  122.3227   86.4647 H   0  0  0  0  0  0  0  0  0  0  0  0
  123.8139  123.0431   84.8386 H   0  0  0  0  0  0  0  0  0  0  0  0
  120.3152  123.4635   85.7588 H   0  0  0  0  0  0  0  0  0  0  0  0
  120.7441  122.0624   87.7128 H   0  0  0  0  0  0  0  0  0  0  0  0
  122.4895  121.3421   89.3391 H   0  0  0  0  0  0  0  0  0  0  0  0
  1  2  3  0
  2  3  1  0
  3  4  2  0
  4  5  1  0
  5  6  2  0
  6  7  1  0
  7  8  1  0
  8  9  2  0
  8 10  1  0
 10 11  1  0
 10 12  1  0
 10 13  1  0
  6 14  1  0
 14 15  2  0
 15  3  1  0
  4 16  1  0
  5 17  1  0
  7 18  1  0
 14 19  1  0
 15 20  1  0
M  END
>  <loss>  (20) 
0.4997795820236206

>  <score>  (20) 
3.139573812484741

$$$$
RWWHDWGTLIGQBC-UHFFFAOYSA-N
     RDKit          3D

 20 20  0  0  0  0  0  0  0  0999 V2000
  125.7747  121.0714   89.7719 N   0  0  0  0  0  0  0  0  0  0  0  0
  125.0648  121.4030   88.9157 C   0  0  0  0  0  0  0  0  0  0  0  0
  124.1945  121.8135   87.8532 C   0  0  0  0  0  0  0  0  0  0  0  0
  124.7190  122.1492   86.6035 C   0  0  0  0  0  0  0  0  0  0  0  0
  123.8658  122.5495   85.5689 C   0  0  0  0  0  0  0  0  0  0  0  0
  122.4800  122.6194   85.7674 C   0  0  0  0  0  0  0  0  0  0  0  0
  121.6981  123.0330   84.6696 N   0  0  0  0  0  0  0  0  0  0  0  0
  120.3039  123.1505   84.5987 C   0  0  0  0  0  0  0  0  0  0  0  0
  119.5639  123.0989   85.5814 O   0  0  0  0  0  0  0  0  0  0  0  0
  119.7690  123.3899   83.1601 C   0  0  0  0  0  0  0  0  0  0  0  0
  120.2901  125.0198   82.6455 Cl  0  0  0  0  0  0  0  0  0  0  0  0
  117.9979  123.2690   83.0970 Cl  0  0  0  0  0  0  0  0  0  0  0  0
  120.4886  122.1710   82.0634 Cl  0  0  0  0  0  0  0  0  0  0  0  0
  121.9633  122.2827   87.0199 C   0  0  0  0  0  0  0  0  0  0  0  0
  122.8150  121.8816   88.0578 C   0  0  0  0  0  0  0  0  0  0  0  0
  125.8044  122.0991   86.4320 H   0  0  0  0  0  0  0  0  0  0  0  0
  124.2880  122.8125   84.5877 H   0  0  0  0  0  0  0  0  0  0  0  0
  122.2159  123.2792   83.8139 H   0  0  0  0  0  0  0  0  0  0  0  0
  120.8782  122.3327   87.1935 H   0  0  0  0  0  0  0  0  0  0  0  0
  122.3943  121.6188   89.0396 H   0  0  0  0  0  0  0  0  0  0  0  0
  1  2  3  0
  2  3  1  0
  3  4  2  0
  4  5  1  0
  5  6  2  0
  6  7  1  0
  7  8  1  0
  8  9  2  0
  8 10  1  0
 10 11  1  0
 10 12  1  0
 10 13  1  0
  6 14  1  0
 14 15  2  0
 15  3  1  0
  4 16  1  0
  5 17  1  0
  7 18  1  0
 14 19  1  0
 15 20  1  0
M  END
>  <loss>  (21) 
0.4907325208187103

>  <score>  (21) 
3.0842573642730713

$$$$
RWWHDWGTLIGQBC-UHFFFAOYSA-N
     RDKit          3D

 20 20  0  0  0  0  0  0  0  0999 V2000
  125.9095  121.0092   89.7031 N   0  0  0  0  0  0  0  0  0  0  0  0
  125.1098  121.3631   88.9402 C   0  0  0  0  0  0  0  0  0  0  0  0
  124.1160  121.7982   88.0031 C   0  0  0  0  0  0  0  0  0  0  0  0
  124.4948  122.3180   86.7638 C   0  0  0  0  0  0  0  0  0  0  0  0
  123.5242  122.7436   85.8470 C   0  0  0  0  0  0  0  0  0  0  0  0
  122.1661  122.6549   86.1583 C   0  0  0  0  0  0  0  0  0  0  0  0
  121.1250  123.0580   85.2974 N   0  0  0  0  0  0  0  0  0  0  0  0
  120.9689  122.7659   83.9363 C   0  0  0  0  0  0  0  0  0  0  0  0
  121.7470  122.0575   83.2968 O   0  0  0  0  0  0  0  0  0  0  0  0
  119.6931  123.3879   83.3051 C   0  0  0  0  0  0  0  0  0  0  0  0
  119.8462  123.5325   81.5412 Cl  0  0  0  0  0  0  0  0  0  0  0  0
  118.3100  122.3342   83.7160 Cl  0  0  0  0  0  0  0  0  0  0  0  0
  119.4247  125.0105   84.0136 Cl  0  0  0  0  0  0  0  0  0  0  0  0
  121.7927  122.1313   87.4038 C   0  0  0  0  0  0  0  0  0  0  0  0
  122.7597  121.7055   88.3215 C   0  0  0  0  0  0  0  0  0  0  0  0
  125.5613  122.3940   86.5056 H   0  0  0  0  0  0  0  0  0  0  0  0
  123.8351  123.1511   84.8737 H   0  0  0  0  0  0  0  0  0  0  0  0
  120.3880  123.6391   85.7217 H   0  0  0  0  0  0  0  0  0  0  0  0
  120.7265  122.0542   87.6631 H   0  0  0  0  0  0  0  0  0  0  0  0
  122.4508  121.2972   89.2951 H   0  0  0  0  0  0  0  0  0  0  0  0
  1  2  3  0
  2  3  1  0
  3  4  2  0
  4  5  1  0
  5  6  2  0
  6  7  1  0
  7  8  1  0
  8  9  2  0
  8 10  1  0
 10 11  1  0
 10 12  1  0
 10 13  1  0
  6 14  1  0
 14 15  2  0
 15  3  1  0
  4 16  1  0
  5 17  1  0
  7 18  1  0
 14 19  1  0
 15 20  1  0
M  END
>  <loss>  (22) 
0.4955102205276489

>  <score>  (22) 
3.10394287109375

$$$$
RWWHDWGTLIGQBC-UHFFFAOYSA-N
     RDKit          3D

 20 20  0  0  0  0  0  0  0  0999 V2000
  125.9009  120.9659   89.7051 N   0  0  0  0  0  0  0  0  0  0  0  0
  125.1084  121.3263   88.9377 C   0  0  0  0  0  0  0  0  0  0  0  0
  124.1235  121.7699   87.9952 C   0  0  0  0  0  0  0  0  0  0  0  0
  124.5108  122.2384   86.7382 C   0  0  0  0  0  0  0  0  0  0  0  0
  123.5489  122.6722   85.8161 C   0  0  0  0  0  0  0  0  0  0  0  0
  122.1911  122.6430   86.1397 C   0  0  0  0  0  0  0  0  0  0  0  0
  121.1583  123.0585   85.2747 N   0  0  0  0  0  0  0  0  0  0  0  0
  121.0333  122.8153   83.9007 C   0  0  0  0  0  0  0  0  0  0  0  0
  121.8599  122.1843   83.2414 O   0  0  0  0  0  0  0  0  0  0  0  0
  119.7280  123.3852   83.2809 C   0  0  0  0  0  0  0  0  0  0  0  0
  119.9150  125.1518   83.0554 Cl  0  0  0  0  0  0  0  0  0  0  0  0
  118.3962  123.0803   84.4324 Cl  0  0  0  0  0  0  0  0  0  0  0  0
  119.3662  122.6253   81.7165 Cl  0  0  0  0  0  0  0  0  0  0  0  0
  121.8091  122.1708   87.4030 C   0  0  0  0  0  0  0  0  0  0  0  0
  122.7674  121.7369   88.3260 C   0  0  0  0  0  0  0  0  0  0  0  0
  125.5772  122.2672   86.4702 H   0  0  0  0  0  0  0  0  0  0  0  0
  123.8664  123.0389   84.8289 H   0  0  0  0  0  0  0  0  0  0  0  0
  120.4023  123.6091   85.7062 H   0  0  0  0  0  0  0  0  0  0  0  0
  120.7430  122.1408   87.6722 H   0  0  0  0  0  0  0  0  0  0  0  0
  122.4518  121.3693   89.3136 H   0  0  0  0  0  0  0  0  0  0  0  0
  1  2  3  0
  2  3  1  0
  3  4  2  0
  4  5  1  0
  5  6  2  0
  6  7  1  0
  7  8  1  0
  8  9  2  0
  8 10  1  0
 10 11  1  0
 10 12  1  0
 10 13  1  0
  6 14  1  0
 14 15  2  0
 15  3  1  0
  4 16  1  0
  5 17  1  0
  7 18  1  0
 14 19  1  0
 15 20  1  0
M  END
>  <loss>  (23) 
0.4973219633102417

>  <score>  (23) 
3.090782880783081

$$$$
RWWHDWGTLIGQBC-UHFFFAOYSA-N
     RDKit          3D

 20 20  0  0  0  0  0  0  0  0999 V2000
  125.7757  121.0658   89.7766 N   0  0  0  0  0  0  0  0  0  0  0  0
  125.0664  121.3949   88.9191 C   0  0  0  0  0  0  0  0  0  0  0  0
  124.1966  121.8024   87.8549 C   0  0  0  0  0  0  0  0  0  0  0  0
  124.7234  122.1525   86.6102 C   0  0  0  0  0  0  0  0  0  0  0  0
  123.8709  122.5498   85.5739 C   0  0  0  0  0  0  0  0  0  0  0  0
  122.4833  122.6024   85.7659 C   0  0  0  0  0  0  0  0  0  0  0  0
  121.7022  123.0143   84.6669 N   0  0  0  0  0  0  0  0  0  0  0  0
  120.3157  123.2088   84.6184 C   0  0  0  0  0  0  0  0  0  0  0  0
  119.6016  123.2833   85.6187 O   0  0  0  0  0  0  0  0  0  0  0  0
  119.7556  123.3598   83.1774 C   0  0  0  0  0  0  0  0  0  0  0  0
  120.2569  124.9595   82.5590 Cl  0  0  0  0  0  0  0  0  0  0  0  0
  117.9846  123.2249   83.1512 Cl  0  0  0  0  0  0  0  0  0  0  0  0
  120.4655  122.0826   82.1424 Cl  0  0  0  0  0  0  0  0  0  0  0  0
  121.9643  122.2515   87.0135 C   0  0  0  0  0  0  0  0  0  0  0  0
  122.8154  121.8533   88.0531 C   0  0  0  0  0  0  0  0  0  0  0  0
  125.8102  122.1160   86.4438 H   0  0  0  0  0  0  0  0  0  0  0  0
  124.2948  122.8242   84.5966 H   0  0  0  0  0  0  0  0  0  0  0  0
  122.2142  123.1945   83.7915 H   0  0  0  0  0  0  0  0  0  0  0  0
  120.8779  122.2879   87.1820 H   0  0  0  0  0  0  0  0  0  0  0  0
  122.3929  121.5792   89.0310 H   0  0  0  0  0  0  0  0  0  0  0  0
  1  2  3  0
  2  3  1  0
  3  4  2  0
  4  5  1  0
  5  6  2  0
  6  7  1  0
  7  8  1  0
  8  9  2  0
  8 10  1  0
 10 11  1  0
 10 12  1  0
 10 13  1  0
  6 14  1  0
 14 15  2  0
 15  3  1  0
  4 16  1  0
  5 17  1  0
  7 18  1  0
 14 19  1  0
 15 20  1  0
M  END
>  <loss>  (24) 
0.49289754033088684

>  <score>  (24) 
3.0472970008850098

$$$$
RWWHDWGTLIGQBC-UHFFFAOYSA-N
     RDKit          3D

 20 20  0  0  0  0  0  0  0  0999 V2000
  125.9019  120.9670   89.7327 N   0  0  0  0  0  0  0  0  0  0  0  0
  125.1069  121.3261   88.9674 C   0  0  0  0  0  0  0  0  0  0  0  0
  124.1188  121.7675   88.0272 C   0  0  0  0  0  0  0  0  0  0  0  0
  124.5056  122.3184   86.8038 C   0  0  0  0  0  0  0  0  0  0  0  0
  123.5407  122.7501   85.8841 C   0  0  0  0  0  0  0  0  0  0  0  0
  122.1802  122.6368   86.1764 C   0  0  0  0  0  0  0  0  0  0  0  0
  121.1443  123.0440   85.3111 N   0  0  0  0  0  0  0  0  0  0  0  0
  121.0171  122.7920   83.9390 C   0  0  0  0  0  0  0  0  0  0  0  0
  121.8038  122.0954   83.2972 O   0  0  0  0  0  0  0  0  0  0  0  0
  119.7612  123.4430   83.2971 C   0  0  0  0  0  0  0  0  0  0  0  0
  119.6637  123.0897   81.5589 Cl  0  0  0  0  0  0  0  0  0  0  0  0
  118.3215  122.7976   84.1355 Cl  0  0  0  0  0  0  0  0  0  0  0  0
  119.8355  125.2157   83.5402 Cl  0  0  0  0  0  0  0  0  0  0  0  0
  121.7987  122.0822   87.4059 C   0  0  0  0  0  0  0  0  0  0  0  0
  122.7602  121.6501   88.3265 C   0  0  0  0  0  0  0  0  0  0  0  0
  125.5742  122.4139   86.5607 H   0  0  0  0  0  0  0  0  0  0  0  0
  123.8579  123.1821   84.9234 H   0  0  0  0  0  0  0  0  0  0  0  0
  120.3875  123.5948   85.7410 H   0  0  0  0  0  0  0  0  0  0  0  0
  120.7306  121.9854   87.6501 H   0  0  0  0  0  0  0  0  0  0  0  0
  122.4449  121.2173   89.2874 H   0  0  0  0  0  0  0  0  0  0  0  0
  1  2  3  0
  2  3  1  0
  3  4  2  0
  4  5  1  0
  5  6  2  0
  6  7  1  0
  7  8  1  0
  8  9  2  0
  8 10  1  0
 10 11  1  0
 10 12  1  0
 10 13  1  0
  6 14  1  0
 14 15  2  0
 15  3  1  0
  4 16  1  0
  5 17  1  0
  7 18  1  0
 14 19  1  0
 15 20  1  0
M  END
>  <loss>  (25) 
0.4915804862976074

>  <score>  (25) 
3.0151865482330322

$$$$
