SJPLIZPAHCNLFD-UHFFFAOYSA-N
     RDKit          3D

 27 27  0  0  0  0  0  0  0  0999 V2000
  124.7434  122.9713   84.7318 C   0  0  0  0  0  0  0  0  0  0  0  0
  124.8414  122.3432   86.0943 C   0  0  0  0  0  0  0  0  0  0  0  0
  126.0733  122.3266   86.7669 C   0  0  0  0  0  0  0  0  0  0  0  0
  126.1810  121.7486   88.0324 C   0  0  0  0  0  0  0  0  0  0  0  0
  125.0580  121.1849   88.6311 C   0  0  0  0  0  0  0  0  0  0  0  0
  125.1919  120.4652   90.1885 Cl  0  0  0  0  0  0  0  0  0  0  0  0
  123.8268  121.2036   87.9816 C   0  0  0  0  0  0  0  0  0  0  0  0
  123.7049  121.7983   86.7209 C   0  0  0  0  0  0  0  0  0  0  0  0
  122.4520  121.7900   86.0888 N   0  0  0  0  0  0  0  0  0  0  0  0
  121.5297  122.6157   86.4817 C   0  0  0  0  0  0  0  0  0  0  0  0
  121.6407  123.5243   87.4898 N   0  0  0  0  0  0  0  0  0  0  0  0
  120.3170  122.6172   85.8527 N   0  0  0  0  0  0  0  0  0  0  0  0
  120.0179  123.4926   84.9543 C   0  0  0  0  0  0  0  0  0  0  0  0
  120.7783  124.4942   84.4532 N   0  0  0  0  0  0  0  0  0  0  0  0
  118.8109  123.4326   84.3452 N   0  0  0  0  0  0  0  0  0  0  0  0
  124.5747  124.0531   84.8381 H   0  0  0  0  0  0  0  0  0  0  0  0
  125.6794  122.7986   84.1803 H   0  0  0  0  0  0  0  0  0  0  0  0
  123.9045  122.5218   84.1803 H   0  0  0  0  0  0  0  0  0  0  0  0
  126.9602  122.7725   86.2930 H   0  0  0  0  0  0  0  0  0  0  0  0
  127.1491  121.7386   88.5546 H   0  0  0  0  0  0  0  0  0  0  0  0
  122.9470  120.7494   88.4610 H   0  0  0  0  0  0  0  0  0  0  0  0
  120.8448  124.1353   87.7224 H   0  0  0  0  0  0  0  0  0  0  0  0
  122.5206  123.6006   88.0198 H   0  0  0  0  0  0  0  0  0  0  0  0
  120.3948  125.1196   83.7302 H   0  0  0  0  0  0  0  0  0  0  0  0
  121.7402  124.6309   84.7949 H   0  0  0  0  0  0  0  0  0  0  0  0
  118.5618  124.1267   83.6262 H   0  0  0  0  0  0  0  0  0  0  0  0
  118.1414  122.6927   84.6007 H   0  0  0  0  0  0  0  0  0  0  0  0
  1  2  1  0
  2  3  2  0
  3  4  1  0
  4  5  2  0
  5  6  1  0
  5  7  1  0
  7  8  2  0
  8  9  1  0
  9 10  2  3
 10 11  1  0
 10 12  1  0
 12 13  2  3
 13 14  1  0
 13 15  1  0
  8  2  1  0
  1 16  1  0
  1 17  1  0
  1 18  1  0
  3 19  1  0
  4 20  1  0
  7 21  1  0
 11 22  1  0
 11 23  1  0
 14 24  1  0
 14 25  1  0
 15 26  1  0
 15 27  1  0
M  END
>  <loss>  (1) 
0.7032902240753174

>  <score>  (1) 
2.7021162509918213

$$$$
SJPLIZPAHCNLFD-UHFFFAOYSA-N
     RDKit          3D

 27 27  0  0  0  0  0  0  0  0999 V2000
  124.7105  123.0511   84.8634 C   0  0  0  0  0  0  0  0  0  0  0  0
  124.7996  122.3715   86.2016 C   0  0  0  0  0  0  0  0  0  0  0  0
  126.0218  122.3489   86.8915 C   0  0  0  0  0  0  0  0  0  0  0  0
  126.1212  121.7233   88.1349 C   0  0  0  0  0  0  0  0  0  0  0  0
  124.9997  121.1179   88.6941 C   0  0  0  0  0  0  0  0  0  0  0  0
  125.1235  120.3397   90.2239 Cl  0  0  0  0  0  0  0  0  0  0  0  0
  123.7777  121.1417   88.0273 C   0  0  0  0  0  0  0  0  0  0  0  0
  123.6638  121.7835   86.7892 C   0  0  0  0  0  0  0  0  0  0  0  0
  122.4204  121.7793   86.1385 N   0  0  0  0  0  0  0  0  0  0  0  0
  121.5087  122.6344   86.4915 C   0  0  0  0  0  0  0  0  0  0  0  0
  121.6225  123.5717   87.4726 N   0  0  0  0  0  0  0  0  0  0  0  0
  120.3056  122.6393   85.8442 N   0  0  0  0  0  0  0  0  0  0  0  0
  120.0418  123.4834   84.9056 C   0  0  0  0  0  0  0  0  0  0  0  0
  120.8343  124.4441   84.3753 N   0  0  0  0  0  0  0  0  0  0  0  0
  118.8427  123.4276   84.2809 N   0  0  0  0  0  0  0  0  0  0  0  0
  124.5687  124.1321   85.0099 H   0  0  0  0  0  0  0  0  0  0  0  0
  125.6393  122.8761   84.3007 H   0  0  0  0  0  0  0  0  0  0  0  0
  123.8583  122.6425   84.3007 H   0  0  0  0  0  0  0  0  0  0  0  0
  126.9077  122.8277   86.4487 H   0  0  0  0  0  0  0  0  0  0  0  0
  127.0818  121.7088   88.6707 H   0  0  0  0  0  0  0  0  0  0  0  0
  122.8991  120.6545   88.4753 H   0  0  0  0  0  0  0  0  0  0  0  0
  120.8353  124.2046   87.6739 H   0  0  0  0  0  0  0  0  0  0  0  0
  122.4958  123.6477   88.0134 H   0  0  0  0  0  0  0  0  0  0  0  0
  120.4773  125.0480   83.6211 H   0  0  0  0  0  0  0  0  0  0  0  0
  121.7944  124.5714   84.7260 H   0  0  0  0  0  0  0  0  0  0  0  0
  118.6216  124.0970   83.5300 H   0  0  0  0  0  0  0  0  0  0  0  0
  118.1511  122.7158   84.5564 H   0  0  0  0  0  0  0  0  0  0  0  0
  1  2  1  0
  2  3  2  0
  3  4  1  0
  4  5  2  0
  5  6  1  0
  5  7  1  0
  7  8  2  0
  8  9  1  0
  9 10  2  3
 10 11  1  0
 10 12  1  0
 12 13  2  3
 13 14  1  0
 13 15  1  0
  8  2  1  0
  1 16  1  0
  1 17  1  0
  1 18  1  0
  3 19  1  0
  4 20  1  0
  7 21  1  0
 11 22  1  0
 11 23  1  0
 14 24  1  0
 14 25  1  0
 15 26  1  0
 15 27  1  0
M  END
>  <loss>  (2) 
0.7134961485862732

>  <score>  (2) 
2.738757371902466

$$$$
SJPLIZPAHCNLFD-UHFFFAOYSA-N
     RDKit          3D

 27 27  0  0  0  0  0  0  0  0999 V2000
  122.4748  121.3387   88.6023 C   0  0  0  0  0  0  0  0  0  0  0  0
  123.7111  121.6132   87.7932 C   0  0  0  0  0  0  0  0  0  0  0  0
  124.8984  121.9811   88.4470 C   0  0  0  0  0  0  0  0  0  0  0  0
  126.0566  122.2466   87.7160 C   0  0  0  0  0  0  0  0  0  0  0  0
  126.0334  122.1434   86.3286 C   0  0  0  0  0  0  0  0  0  0  0  0
  127.4636  122.4596   85.4241 Cl  0  0  0  0  0  0  0  0  0  0  0  0
  124.8620  121.7886   85.6657 C   0  0  0  0  0  0  0  0  0  0  0  0
  123.6870  121.5486   86.3863 C   0  0  0  0  0  0  0  0  0  0  0  0
  122.5278  121.1844   85.6792 N   0  0  0  0  0  0  0  0  0  0  0  0
  121.6974  122.1054   85.2903 C   0  0  0  0  0  0  0  0  0  0  0  0
  120.5614  121.7260   84.6523 N   0  0  0  0  0  0  0  0  0  0  0  0
  121.8873  123.4300   85.5374 N   0  0  0  0  0  0  0  0  0  0  0  0
  120.9683  124.2513   85.1663 C   0  0  0  0  0  0  0  0  0  0  0  0
  121.1158  125.5804   85.3731 N   0  0  0  0  0  0  0  0  0  0  0  0
  119.7765  124.0128   84.5690 N   0  0  0  0  0  0  0  0  0  0  0  0
  122.7182  121.3928   89.6737 H   0  0  0  0  0  0  0  0  0  0  0  0
  121.7060  122.0881   88.3627 H   0  0  0  0  0  0  0  0  0  0  0  0
  122.0953  120.3345   88.3627 H   0  0  0  0  0  0  0  0  0  0  0  0
  124.9152  122.0604   89.5440 H   0  0  0  0  0  0  0  0  0  0  0  0
  126.9830  122.5361   88.2336 H   0  0  0  0  0  0  0  0  0  0  0  0
  124.8601  121.6965   84.5696 H   0  0  0  0  0  0  0  0  0  0  0  0
  119.8873  122.4369   84.3342 H   0  0  0  0  0  0  0  0  0  0  0  0
  120.3731  120.7271   84.4860 H   0  0  0  0  0  0  0  0  0  0  0  0
  120.3773  126.2332   85.0742 H   0  0  0  0  0  0  0  0  0  0  0  0
  121.9666  125.9393   85.8295 H   0  0  0  0  0  0  0  0  0  0  0  0
  119.1509  124.7973   84.3365 H   0  0  0  0  0  0  0  0  0  0  0  0
  119.4957  123.0470   84.3472 H   0  0  0  0  0  0  0  0  0  0  0  0
  1  2  1  0
  2  3  2  0
  3  4  1  0
  4  5  2  0
  5  6  1  0
  5  7  1  0
  7  8  2  0
  8  9  1  0
  9 10  2  3
 10 11  1  0
 10 12  1  0
 12 13  2  3
 13 14  1  0
 13 15  1  0
  8  2  1  0
  1 16  1  0
  1 17  1  0
  1 18  1  0
  3 19  1  0
  4 20  1  0
  7 21  1  0
 11 22  1  0
 11 23  1  0
 14 24  1  0
 14 25  1  0
 15 26  1  0
 15 27  1  0
M  END
>  <loss>  (3) 
0.7167466282844543

>  <score>  (3) 
2.6579599380493164

$$$$
SJPLIZPAHCNLFD-UHFFFAOYSA-N
     RDKit          3D

 27 27  0  0  0  0  0  0  0  0999 V2000
  122.0894  121.5049   87.6145 C   0  0  0  0  0  0  0  0  0  0  0  0
  123.5686  121.6903   87.4201 C   0  0  0  0  0  0  0  0  0  0  0  0
  124.4182  121.7010   88.5381 C   0  0  0  0  0  0  0  0  0  0  0  0
  125.7940  121.8681   88.3796 C   0  0  0  0  0  0  0  0  0  0  0  0
  126.3256  122.0266   87.1033 C   0  0  0  0  0  0  0  0  0  0  0  0
  128.0225  122.2401   86.9066 Cl  0  0  0  0  0  0  0  0  0  0  0  0
  125.4968  122.0100   85.9850 C   0  0  0  0  0  0  0  0  0  0  0  0
  124.1190  121.8155   86.1290 C   0  0  0  0  0  0  0  0  0  0  0  0
  123.3098  121.8174   84.9791 N   0  0  0  0  0  0  0  0  0  0  0  0
  122.2668  122.5916   84.9275 C   0  0  0  0  0  0  0  0  0  0  0  0
  121.5457  122.6307   83.7809 N   0  0  0  0  0  0  0  0  0  0  0  0
  121.8617  123.3776   85.9622 N   0  0  0  0  0  0  0  0  0  0  0  0
  120.6959  123.9187   85.9074 C   0  0  0  0  0  0  0  0  0  0  0  0
  119.7412  123.8480   84.9507 N   0  0  0  0  0  0  0  0  0  0  0  0
  120.2624  124.6969   86.9262 N   0  0  0  0  0  0  0  0  0  0  0  0
  121.8616  121.4763   88.6903 H   0  0  0  0  0  0  0  0  0  0  0  0
  121.5504  122.3425   87.1477 H   0  0  0  0  0  0  0  0  0  0  0  0
  121.7738  120.5602   87.1477 H   0  0  0  0  0  0  0  0  0  0  0  0
  123.9958  121.5766   89.5461 H   0  0  0  0  0  0  0  0  0  0  0  0
  126.4552  121.8746   89.2587 H   0  0  0  0  0  0  0  0  0  0  0  0
  125.9277  122.1507   84.9827 H   0  0  0  0  0  0  0  0  0  0  0  0
  120.7151  123.2363   83.7153 H   0  0  0  0  0  0  0  0  0  0  0  0
  121.8282  122.0549   82.9749 H   0  0  0  0  0  0  0  0  0  0  0  0
  118.8517  124.3529   85.0724 H   0  0  0  0  0  0  0  0  0  0  0  0
  119.9041  123.2893   84.1009 H   0  0  0  0  0  0  0  0  0  0  0  0
  119.3289  125.1301   86.8823 H   0  0  0  0  0  0  0  0  0  0  0  0
  120.8659  124.8561   87.7456 H   0  0  0  0  0  0  0  0  0  0  0  0
  1  2  1  0
  2  3  2  0
  3  4  1  0
  4  5  2  0
  5  6  1  0
  5  7  1  0
  7  8  2  0
  8  9  1  0
  9 10  2  3
 10 11  1  0
 10 12  1  0
 12 13  2  3
 13 14  1  0
 13 15  1  0
  8  2  1  0
  1 16  1  0
  1 17  1  0
  1 18  1  0
  3 19  1  0
  4 20  1  0
  7 21  1  0
 11 22  1  0
 11 23  1  0
 14 24  1  0
 14 25  1  0
 15 26  1  0
 15 27  1  0
M  END
>  <loss>  (4) 
0.7669063210487366

>  <score>  (4) 
2.8865578174591064

$$$$
SJPLIZPAHCNLFD-UHFFFAOYSA-N
     RDKit          3D

 27 27  0  0  0  0  0  0  0  0999 V2000
  122.2427  121.2408   87.8590 C   0  0  0  0  0  0  0  0  0  0  0  0
  123.6548  121.6748   87.5799 C   0  0  0  0  0  0  0  0  0  0  0  0
  124.5707  121.7759   88.6396 C   0  0  0  0  0  0  0  0  0  0  0  0
  125.8865  122.1733   88.4020 C   0  0  0  0  0  0  0  0  0  0  0  0
  126.2915  122.4724   87.1046 C   0  0  0  0  0  0  0  0  0  0  0  0
  127.9132  122.9699   86.8107 Cl  0  0  0  0  0  0  0  0  0  0  0  0
  125.3971  122.3690   86.0430 C   0  0  0  0  0  0  0  0  0  0  0  0
  124.0826  121.9448   86.2648 C   0  0  0  0  0  0  0  0  0  0  0  0
  123.2022  121.8642   85.1714 N   0  0  0  0  0  0  0  0  0  0  0  0
  122.1028  122.5577   85.1780 C   0  0  0  0  0  0  0  0  0  0  0  0
  121.3074  122.5208   84.0815 N   0  0  0  0  0  0  0  0  0  0  0  0
  121.7081  123.3317   86.2257 N   0  0  0  0  0  0  0  0  0  0  0  0
  120.4614  123.6279   86.3399 C   0  0  0  0  0  0  0  0  0  0  0  0
  119.4064  123.2933   85.5609 N   0  0  0  0  0  0  0  0  0  0  0  0
  120.0385  124.3875   87.3771 N   0  0  0  0  0  0  0  0  0  0  0  0
  122.0823  121.1915   88.9461 H   0  0  0  0  0  0  0  0  0  0  0  0
  121.5424  121.9652   87.4175 H   0  0  0  0  0  0  0  0  0  0  0  0
  122.0701  120.2482   87.4175 H   0  0  0  0  0  0  0  0  0  0  0  0
  124.2481  121.5400   89.6645 H   0  0  0  0  0  0  0  0  0  0  0  0
  126.6001  122.2499   89.2355 H   0  0  0  0  0  0  0  0  0  0  0  0
  125.7257  122.6221   85.0242 H   0  0  0  0  0  0  0  0  0  0  0  0
  120.4311  123.0617   84.0624 H   0  0  0  0  0  0  0  0  0  0  0  0
  121.5792  121.9518   83.2670 H   0  0  0  0  0  0  0  0  0  0  0  0
  118.4614  123.6227   85.8045 H   0  0  0  0  0  0  0  0  0  0  0  0
  119.5486  122.7092   84.7245 H   0  0  0  0  0  0  0  0  0  0  0  0
  119.0403  124.6245   87.4684 H   0  0  0  0  0  0  0  0  0  0  0  0
  120.7148  124.7285   88.0751 H   0  0  0  0  0  0  0  0  0  0  0  0
  1  2  1  0
  2  3  2  0
  3  4  1  0
  4  5  2  0
  5  6  1  0
  5  7  1  0
  7  8  2  0
  8  9  1  0
  9 10  2  3
 10 11  1  0
 10 12  1  0
 12 13  2  3
 13 14  1  0
 13 15  1  0
  8  2  1  0
  1 16  1  0
  1 17  1  0
  1 18  1  0
  3 19  1  0
  4 20  1  0
  7 21  1  0
 11 22  1  0
 11 23  1  0
 14 24  1  0
 14 25  1  0
 15 26  1  0
 15 27  1  0
M  END
>  <loss>  (5) 
0.7561512589454651

>  <score>  (5) 
2.8299357891082764

$$$$
SJPLIZPAHCNLFD-UHFFFAOYSA-N
     RDKit          3D

 27 27  0  0  0  0  0  0  0  0999 V2000
  122.3713  120.9846   88.2383 C   0  0  0  0  0  0  0  0  0  0  0  0
  123.6863  121.4393   87.6705 C   0  0  0  0  0  0  0  0  0  0  0  0
  124.7478  121.7411   88.5391 C   0  0  0  0  0  0  0  0  0  0  0  0
  125.9755  122.1709   88.0347 C   0  0  0  0  0  0  0  0  0  0  0  0
  126.1479  122.2986   86.6599 C   0  0  0  0  0  0  0  0  0  0  0  0
  127.6650  122.8180   86.0335 Cl  0  0  0  0  0  0  0  0  0  0  0  0
  125.1026  122.0118   85.7868 C   0  0  0  0  0  0  0  0  0  0  0  0
  123.8580  121.6082   86.2826 C   0  0  0  0  0  0  0  0  0  0  0  0
  122.8313  121.3200   85.3665 N   0  0  0  0  0  0  0  0  0  0  0  0
  121.9211  122.2144   85.1205 C   0  0  0  0  0  0  0  0  0  0  0  0
  120.9129  121.8958   84.2698 N   0  0  0  0  0  0  0  0  0  0  0  0
  121.9018  123.4385   85.7146 N   0  0  0  0  0  0  0  0  0  0  0  0
  120.9070  124.2158   85.4638 C   0  0  0  0  0  0  0  0  0  0  0  0
  120.8483  125.4499   86.0157 N   0  0  0  0  0  0  0  0  0  0  0  0
  119.8105  124.0073   84.6968 N   0  0  0  0  0  0  0  0  0  0  0  0
  122.4208  121.0018   89.3371 H   0  0  0  0  0  0  0  0  0  0  0  0
  121.5718  121.6585   87.8968 H   0  0  0  0  0  0  0  0  0  0  0  0
  122.1587  119.9608   87.8968 H   0  0  0  0  0  0  0  0  0  0  0  0
  124.6101  121.6379   89.6256 H   0  0  0  0  0  0  0  0  0  0  0  0
  126.8026  122.4075   88.7202 H   0  0  0  0  0  0  0  0  0  0  0  0
  125.2557  122.1029   84.7014 H   0  0  0  0  0  0  0  0  0  0  0  0
  120.1794  122.5873   84.0586 H   0  0  0  0  0  0  0  0  0  0  0  0
  120.8812  120.9624   83.8353 H   0  0  0  0  0  0  0  0  0  0  0  0
  120.0499  126.0679   85.8116 H   0  0  0  0  0  0  0  0  0  0  0  0
  121.6020  125.7714   86.6397 H   0  0  0  0  0  0  0  0  0  0  0  0
  119.0998  124.7468   84.6024 H   0  0  0  0  0  0  0  0  0  0  0  0
  119.6873  123.1092   84.2077 H   0  0  0  0  0  0  0  0  0  0  0  0
  1  2  1  0
  2  3  2  0
  3  4  1  0
  4  5  2  0
  5  6  1  0
  5  7  1  0
  7  8  2  0
  8  9  1  0
  9 10  2  3
 10 11  1  0
 10 12  1  0
 12 13  2  3
 13 14  1  0
 13 15  1  0
  8  2  1  0
  1 16  1  0
  1 17  1  0
  1 18  1  0
  3 19  1  0
  4 20  1  0
  7 21  1  0
 11 22  1  0
 11 23  1  0
 14 24  1  0
 14 25  1  0
 15 26  1  0
 15 27  1  0
M  END
>  <loss>  (6) 
0.7315699458122253

>  <score>  (6) 
2.697805881500244

$$$$
SJPLIZPAHCNLFD-UHFFFAOYSA-N
     RDKit          3D

 27 27  0  0  0  0  0  0  0  0999 V2000
  124.7300  123.1319   84.8094 C   0  0  0  0  0  0  0  0  0  0  0  0
  124.8127  122.4370   86.1400 C   0  0  0  0  0  0  0  0  0  0  0  0
  126.0328  122.3893   86.8314 C   0  0  0  0  0  0  0  0  0  0  0  0
  126.1234  121.7338   88.0601 C   0  0  0  0  0  0  0  0  0  0  0  0
  124.9970  121.1194   88.6007 C   0  0  0  0  0  0  0  0  0  0  0  0
  125.1134  120.3045   90.1119 Cl  0  0  0  0  0  0  0  0  0  0  0  0
  123.7792  121.1609   87.9279 C   0  0  0  0  0  0  0  0  0  0  0  0
  123.6742  121.8310   86.7041 C   0  0  0  0  0  0  0  0  0  0  0  0
  122.4446  121.8496   86.0278 N   0  0  0  0  0  0  0  0  0  0  0  0
  121.4769  122.5922   86.4735 C   0  0  0  0  0  0  0  0  0  0  0  0
  121.5333  123.4063   87.5635 N   0  0  0  0  0  0  0  0  0  0  0  0
  120.2731  122.6017   85.8260 N   0  0  0  0  0  0  0  0  0  0  0  0
  119.9565  123.5170   84.9785 C   0  0  0  0  0  0  0  0  0  0  0  0
  118.7594  123.4816   84.3471 N   0  0  0  0  0  0  0  0  0  0  0  0
  120.6462  124.6113   84.5794 N   0  0  0  0  0  0  0  0  0  0  0  0
  124.6013  124.2129   84.9677 H   0  0  0  0  0  0  0  0  0  0  0  0
  125.6559  122.9519   84.2435 H   0  0  0  0  0  0  0  0  0  0  0  0
  123.8722  122.7395   84.2435 H   0  0  0  0  0  0  0  0  0  0  0  0
  126.9234  122.8717   86.4022 H   0  0  0  0  0  0  0  0  0  0  0  0
  127.0815  121.7026   88.5997 H   0  0  0  0  0  0  0  0  0  0  0  0
  122.8969  120.6656   88.3595 H   0  0  0  0  0  0  0  0  0  0  0  0
  120.7078  123.9581   87.8374 H   0  0  0  0  0  0  0  0  0  0  0  0
  122.4014  123.4703   88.1142 H   0  0  0  0  0  0  0  0  0  0  0  0
  118.5124  124.2174   83.6699 H   0  0  0  0  0  0  0  0  0  0  0  0
  118.0957  122.7190   84.5439 H   0  0  0  0  0  0  0  0  0  0  0  0
  120.2394  125.2501   83.8812 H   0  0  0  0  0  0  0  0  0  0  0  0
  121.5776  124.8053   84.9740 H   0  0  0  0  0  0  0  0  0  0  0  0
  1  2  1  0
  2  3  2  0
  3  4  1  0
  4  5  2  0
  5  6  1  0
  5  7  1  0
  7  8  2  0
  8  9  1  0
  9 10  2  3
 10 11  1  0
 10 12  1  0
 12 13  2  3
 13 14  1  0
 13 15  1  0
  8  2  1  0
  1 16  1  0
  1 17  1  0
  1 18  1  0
  3 19  1  0
  4 20  1  0
  7 21  1  0
 11 22  1  0
 11 23  1  0
 14 24  1  0
 14 25  1  0
 15 26  1  0
 15 27  1  0
M  END
>  <loss>  (7) 
0.7121188044548035

>  <score>  (7) 
2.599825620651245

$$$$
SJPLIZPAHCNLFD-UHFFFAOYSA-N
     RDKit          3D

 27 27  0  0  0  0  0  0  0  0999 V2000
  122.2884  120.9730   88.0137 C   0  0  0  0  0  0  0  0  0  0  0  0
  123.6565  121.4287   87.5904 C   0  0  0  0  0  0  0  0  0  0  0  0
  124.6402  121.6625   88.5650 C   0  0  0  0  0  0  0  0  0  0  0  0
  125.9152  122.0919   88.1958 C   0  0  0  0  0  0  0  0  0  0  0  0
  126.2128  122.2873   86.8506 C   0  0  0  0  0  0  0  0  0  0  0  0
  127.7883  122.8064   86.3906 Cl  0  0  0  0  0  0  0  0  0  0  0  0
  125.2457  122.0684   85.8738 C   0  0  0  0  0  0  0  0  0  0  0  0
  123.9551  121.6660   86.2344 C   0  0  0  0  0  0  0  0  0  0  0  0
  123.0105  121.4475   85.2164 N   0  0  0  0  0  0  0  0  0  0  0  0
  122.0461  122.3010   85.0420 C   0  0  0  0  0  0  0  0  0  0  0  0
  121.1185  122.0440   84.0853 N   0  0  0  0  0  0  0  0  0  0  0  0
  121.8924  123.4157   85.8073 N   0  0  0  0  0  0  0  0  0  0  0  0
  120.8693  124.1644   85.5848 C   0  0  0  0  0  0  0  0  0  0  0  0
  120.6791  125.2933   86.3064 N   0  0  0  0  0  0  0  0  0  0  0  0
  119.8566  124.0146   84.6981 N   0  0  0  0  0  0  0  0  0  0  0  0
  122.2318  120.9541   89.1121 H   0  0  0  0  0  0  0  0  0  0  0  0
  121.5322  121.6677   87.6194 H   0  0  0  0  0  0  0  0  0  0  0  0
  122.0999  119.9635   87.6194 H   0  0  0  0  0  0  0  0  0  0  0  0
  124.4037  121.5057   89.6278 H   0  0  0  0  0  0  0  0  0  0  0  0
  126.6811  122.2751   88.9638 H   0  0  0  0  0  0  0  0  0  0  0  0
  125.4974  122.2126   84.8127 H   0  0  0  0  0  0  0  0  0  0  0  0
  120.3445  122.7050   83.9277 H   0  0  0  0  0  0  0  0  0  0  0  0
  121.1886  121.1879   83.5169 H   0  0  0  0  0  0  0  0  0  0  0  0
  119.8587  125.8888   86.1243 H   0  0  0  0  0  0  0  0  0  0  0  0
  121.3547  125.5570   87.0377 H   0  0  0  0  0  0  0  0  0  0  0  0
  119.1058  124.7181   84.6502 H   0  0  0  0  0  0  0  0  0  0  0  0
  119.8372  123.1972   84.0718 H   0  0  0  0  0  0  0  0  0  0  0  0
  1  2  1  0
  2  3  2  0
  3  4  1  0
  4  5  2  0
  5  6  1  0
  5  7  1  0
  7  8  2  0
  8  9  1  0
  9 10  2  3
 10 11  1  0
 10 12  1  0
 12 13  2  3
 13 14  1  0
 13 15  1  0
  8  2  1  0
  1 16  1  0
  1 17  1  0
  1 18  1  0
  3 19  1  0
  4 20  1  0
  7 21  1  0
 11 22  1  0
 11 23  1  0
 14 24  1  0
 14 25  1  0
 15 26  1  0
 15 27  1  0
M  END
>  <loss>  (8) 
0.728672444820404

>  <score>  (8) 
2.6593940258026123

$$$$
SJPLIZPAHCNLFD-UHFFFAOYSA-N
     RDKit          3D

 27 27  0  0  0  0  0  0  0  0999 V2000
  125.0115  123.5314   85.0503 C   0  0  0  0  0  0  0  0  0  0  0  0
  124.8769  122.6350   86.2497 C   0  0  0  0  0  0  0  0  0  0  0  0
  125.9910  121.9259   86.7240 C   0  0  0  0  0  0  0  0  0  0  0  0
  125.8789  121.1015   87.8444 C   0  0  0  0  0  0  0  0  0  0  0  0
  124.6547  120.9852   88.4973 C   0  0  0  0  0  0  0  0  0  0  0  0
  124.5207  119.9744   89.8835 Cl  0  0  0  0  0  0  0  0  0  0  0  0
  123.5399  121.6794   88.0359 C   0  0  0  0  0  0  0  0  0  0  0  0
  123.6381  122.4947   86.9028 C   0  0  0  0  0  0  0  0  0  0  0  0
  122.5111  123.2032   86.4581 N   0  0  0  0  0  0  0  0  0  0  0  0
  122.0674  123.0135   85.2527 C   0  0  0  0  0  0  0  0  0  0  0  0
  122.6237  122.2009   84.3124 N   0  0  0  0  0  0  0  0  0  0  0  0
  120.9759  123.7134   84.8218 N   0  0  0  0  0  0  0  0  0  0  0  0
  119.7956  123.2006   84.8529 C   0  0  0  0  0  0  0  0  0  0  0  0
  119.3904  121.9746   85.2599 N   0  0  0  0  0  0  0  0  0  0  0  0
  118.7279  123.9093   84.4153 N   0  0  0  0  0  0  0  0  0  0  0  0
  125.1672  124.5682   85.3831 H   0  0  0  0  0  0  0  0  0  0  0  0
  125.8711  123.2076   84.4451 H   0  0  0  0  0  0  0  0  0  0  0  0
  124.0947  123.4744   84.4451 H   0  0  0  0  0  0  0  0  0  0  0  0
  126.9586  122.0206   86.2096 H   0  0  0  0  0  0  0  0  0  0  0  0
  126.7547  120.5454   88.2104 H   0  0  0  0  0  0  0  0  0  0  0  0
  122.5791  121.5868   88.5635 H   0  0  0  0  0  0  0  0  0  0  0  0
  122.1916  122.1200   83.3809 H   0  0  0  0  0  0  0  0  0  0  0  0
  123.4766  121.6671   84.5325 H   0  0  0  0  0  0  0  0  0  0  0  0
  118.3928  121.7216   85.2180 H   0  0  0  0  0  0  0  0  0  0  0  0
  120.0798  121.2948   85.6114 H   0  0  0  0  0  0  0  0  0  0  0  0
  117.7865  123.4923   84.4432 H   0  0  0  0  0  0  0  0  0  0  0  0
  118.8572  124.8653   84.0545 H   0  0  0  0  0  0  0  0  0  0  0  0
  1  2  1  0
  2  3  2  0
  3  4  1  0
  4  5  2  0
  5  6  1  0
  5  7  1  0
  7  8  2  0
  8  9  1  0
  9 10  2  3
 10 11  1  0
 10 12  1  0
 12 13  2  3
 13 14  1  0
 13 15  1  0
  8  2  1  0
  1 16  1  0
  1 17  1  0
  1 18  1  0
  3 19  1  0
  4 20  1  0
  7 21  1  0
 11 22  1  0
 11 23  1  0
 14 24  1  0
 14 25  1  0
 15 26  1  0
 15 27  1  0
M  END
>  <loss>  (9) 
0.697105348110199

>  <score>  (9) 
2.4690358638763428

$$$$
SJPLIZPAHCNLFD-UHFFFAOYSA-N
     RDKit          3D

 27 27  0  0  0  0  0  0  0  0999 V2000
  125.4923  121.4269   86.3172 C   0  0  0  0  0  0  0  0  0  0  0  0
  124.3382  121.5971   87.2655 C   0  0  0  0  0  0  0  0  0  0  0  0
  124.5357  121.4391   88.6457 C   0  0  0  0  0  0  0  0  0  0  0  0
  123.4677  121.5803   89.5330 C   0  0  0  0  0  0  0  0  0  0  0  0
  122.1976  121.8752   89.0447 C   0  0  0  0  0  0  0  0  0  0  0  0
  120.8808  122.0405   90.1402 Cl  0  0  0  0  0  0  0  0  0  0  0  0
  121.9869  122.0377   87.6785 C   0  0  0  0  0  0  0  0  0  0  0  0
  123.0548  121.9157   86.7828 C   0  0  0  0  0  0  0  0  0  0  0  0
  122.8248  122.0643   85.4063 N   0  0  0  0  0  0  0  0  0  0  0  0
  123.1174  123.1871   84.8230 C   0  0  0  0  0  0  0  0  0  0  0  0
  123.6656  124.2790   85.4241 N   0  0  0  0  0  0  0  0  0  0  0  0
  122.8810  123.3407   83.4854 N   0  0  0  0  0  0  0  0  0  0  0  0
  121.8671  123.9949   83.0380 C   0  0  0  0  0  0  0  0  0  0  0  0
  121.6772  124.1368   81.7051 N   0  0  0  0  0  0  0  0  0  0  0  0
  120.8593  124.6039   83.7057 N   0  0  0  0  0  0  0  0  0  0  0  0
  126.4209  121.2900   86.8907 H   0  0  0  0  0  0  0  0  0  0  0  0
  125.3191  120.5446   85.6835 H   0  0  0  0  0  0  0  0  0  0  0  0
  125.5812  122.3217   85.6835 H   0  0  0  0  0  0  0  0  0  0  0  0
  125.5386  121.2025   89.0308 H   0  0  0  0  0  0  0  0  0  0  0  0
  123.6289  121.4591   90.6143 H   0  0  0  0  0  0  0  0  0  0  0  0
  120.9781  122.2627   87.3020 H   0  0  0  0  0  0  0  0  0  0  0  0
  123.8613  125.1266   84.8726 H   0  0  0  0  0  0  0  0  0  0  0  0
  123.8845  124.2574   86.4304 H   0  0  0  0  0  0  0  0  0  0  0  0
  120.8636  124.6617   81.3538 H   0  0  0  0  0  0  0  0  0  0  0  0
  122.3464  123.7199   81.0423 H   0  0  0  0  0  0  0  0  0  0  0  0
  120.1162  125.0906   83.1843 H   0  0  0  0  0  0  0  0  0  0  0  0
  120.8355  124.5806   84.7352 H   0  0  0  0  0  0  0  0  0  0  0  0
  1  2  1  0
  2  3  2  0
  3  4  1  0
  4  5  2  0
  5  6  1  0
  5  7  1  0
  7  8  2  0
  8  9  1  0
  9 10  2  3
 10 11  1  0
 10 12  1  0
 12 13  2  3
 13 14  1  0
 13 15  1  0
  8  2  1  0
  1 16  1  0
  1 17  1  0
  1 18  1  0
  3 19  1  0
  4 20  1  0
  7 21  1  0
 11 22  1  0
 11 23  1  0
 14 24  1  0
 14 25  1  0
 15 26  1  0
 15 27  1  0
M  END
>  <loss>  (10) 
0.6678153276443481

>  <score>  (10) 
2.237452745437622

$$$$
SJPLIZPAHCNLFD-UHFFFAOYSA-N
     RDKit          3D

 27 27  0  0  0  0  0  0  0  0999 V2000
  125.4864  121.4465   86.2906 C   0  0  0  0  0  0  0  0  0  0  0  0
  124.3318  121.5987   87.2416 C   0  0  0  0  0  0  0  0  0  0  0  0
  124.5418  121.4514   88.6216 C   0  0  0  0  0  0  0  0  0  0  0  0
  123.4812  121.5907   89.5177 C   0  0  0  0  0  0  0  0  0  0  0  0
  122.2064  121.8778   89.0385 C   0  0  0  0  0  0  0  0  0  0  0  0
  120.8967  122.0421   90.1425 Cl  0  0  0  0  0  0  0  0  0  0  0  0
  121.9843  122.0380   87.6735 C   0  0  0  0  0  0  0  0  0  0  0  0
  123.0454  121.9195   86.7690 C   0  0  0  0  0  0  0  0  0  0  0  0
  122.7851  122.0756   85.3988 N   0  0  0  0  0  0  0  0  0  0  0  0
  123.0903  123.1928   84.8111 C   0  0  0  0  0  0  0  0  0  0  0  0
  123.6510  124.2845   85.4010 N   0  0  0  0  0  0  0  0  0  0  0  0
  122.8518  123.3352   83.4734 N   0  0  0  0  0  0  0  0  0  0  0  0
  121.8571  124.0256   83.0297 C   0  0  0  0  0  0  0  0  0  0  0  0
  120.9300  124.7278   83.7225 N   0  0  0  0  0  0  0  0  0  0  0  0
  121.6819  124.1541   81.6940 N   0  0  0  0  0  0  0  0  0  0  0  0
  126.4183  121.3236   86.8620 H   0  0  0  0  0  0  0  0  0  0  0  0
  125.3254  120.5618   85.6571 H   0  0  0  0  0  0  0  0  0  0  0  0
  125.5602  122.3427   85.6571 H   0  0  0  0  0  0  0  0  0  0  0  0
  125.5497  121.2246   88.9994 H   0  0  0  0  0  0  0  0  0  0  0  0
  123.6519  121.4740   90.5981 H   0  0  0  0  0  0  0  0  0  0  0  0
  120.9716  122.2584   87.3048 H   0  0  0  0  0  0  0  0  0  0  0  0
  123.8541  125.1249   84.8413 H   0  0  0  0  0  0  0  0  0  0  0  0
  123.8720  124.2697   86.4069 H   0  0  0  0  0  0  0  0  0  0  0  0
  120.1868  125.2345   83.2206 H   0  0  0  0  0  0  0  0  0  0  0  0
  120.9677  124.7553   84.7514 H   0  0  0  0  0  0  0  0  0  0  0  0
  120.8907  124.7032   81.3288 H   0  0  0  0  0  0  0  0  0  0  0  0
  122.3397  123.7027   81.0426 H   0  0  0  0  0  0  0  0  0  0  0  0
  1  2  1  0
  2  3  2  0
  3  4  1  0
  4  5  2  0
  5  6  1  0
  5  7  1  0
  7  8  2  0
  8  9  1  0
  9 10  2  3
 10 11  1  0
 10 12  1  0
 12 13  2  3
 13 14  1  0
 13 15  1  0
  8  2  1  0
  1 16  1  0
  1 17  1  0
  1 18  1  0
  3 19  1  0
  4 20  1  0
  7 21  1  0
 11 22  1  0
 11 23  1  0
 14 24  1  0
 14 25  1  0
 15 26  1  0
 15 27  1  0
M  END
>  <loss>  (11) 
0.6829593181610107

>  <score>  (11) 
2.240664482116699

$$$$
SJPLIZPAHCNLFD-UHFFFAOYSA-N
     RDKit          3D

 27 27  0  0  0  0  0  0  0  0999 V2000
  125.7357  121.6242   86.3009 C   0  0  0  0  0  0  0  0  0  0  0  0
  124.4732  121.6991   87.1138 C   0  0  0  0  0  0  0  0  0  0  0  0
  124.4261  121.1209   88.3914 C   0  0  0  0  0  0  0  0  0  0  0  0
  123.2629  121.1966   89.1587 C   0  0  0  0  0  0  0  0  0  0  0  0
  122.1437  121.8533   88.6541 C   0  0  0  0  0  0  0  0  0  0  0  0
  120.7129  121.9526   89.6051 Cl  0  0  0  0  0  0  0  0  0  0  0  0
  122.1742  122.4283   87.3868 C   0  0  0  0  0  0  0  0  0  0  0  0
  123.3302  122.3422   86.6029 C   0  0  0  0  0  0  0  0  0  0  0  0
  123.3542  122.9414   85.3339 N   0  0  0  0  0  0  0  0  0  0  0  0
  122.4469  122.6294   84.4589 C   0  0  0  0  0  0  0  0  0  0  0  0
  121.4554  121.7111   84.6249 N   0  0  0  0  0  0  0  0  0  0  0  0
  122.4810  123.2083   83.2218 N   0  0  0  0  0  0  0  0  0  0  0  0
  121.9914  124.3811   83.0166 C   0  0  0  0  0  0  0  0  0  0  0  0
  121.3776  125.2295   83.8746 N   0  0  0  0  0  0  0  0  0  0  0  0
  122.0300  124.9341   81.7812 N   0  0  0  0  0  0  0  0  0  0  0  0
  126.6033  121.5727   86.9752 H   0  0  0  0  0  0  0  0  0  0  0  0
  125.7106  120.7260   85.6665 H   0  0  0  0  0  0  0  0  0  0  0  0
  125.8170  122.5191   85.6665 H   0  0  0  0  0  0  0  0  0  0  0  0
  125.3117  120.6048   88.7907 H   0  0  0  0  0  0  0  0  0  0  0  0
  123.2303  120.7390   90.1584 H   0  0  0  0  0  0  0  0  0  0  0  0
  121.2872  122.9517   87.0004 H   0  0  0  0  0  0  0  0  0  0  0  0
  120.7824  121.5367   83.8649 H   0  0  0  0  0  0  0  0  0  0  0  0
  121.3784  121.1907   85.5105 H   0  0  0  0  0  0  0  0  0  0  0  0
  121.0404  126.1441   83.5417 H   0  0  0  0  0  0  0  0  0  0  0  0
  121.2478  124.9605   84.8604 H   0  0  0  0  0  0  0  0  0  0  0  0
  121.6362  125.8730   81.6248 H   0  0  0  0  0  0  0  0  0  0  0  0
  122.4531  124.4160   80.9980 H   0  0  0  0  0  0  0  0  0  0  0  0
  1  2  1  0
  2  3  2  0
  3  4  1  0
  4  5  2  0
  5  6  1  0
  5  7  1  0
  7  8  2  0
  8  9  1  0
  9 10  2  3
 10 11  1  0
 10 12  1  0
 12 13  2  3
 13 14  1  0
 13 15  1  0
  8  2  1  0
  1 16  1  0
  1 17  1  0
  1 18  1  0
  3 19  1  0
  4 20  1  0
  7 21  1  0
 11 22  1  0
 11 23  1  0
 14 24  1  0
 14 25  1  0
 15 26  1  0
 15 27  1  0
M  END
>  <loss>  (12) 
0.7024990320205688

>  <score>  (12) 
2.33746075630188

$$$$
SJPLIZPAHCNLFD-UHFFFAOYSA-N
     RDKit          3D

 27 27  0  0  0  0  0  0  0  0999 V2000
  125.1055  123.2976   84.8732 C   0  0  0  0  0  0  0  0  0  0  0  0
  125.0336  122.5297   86.1638 C   0  0  0  0  0  0  0  0  0  0  0  0
  126.1402  122.5026   87.0260 C   0  0  0  0  0  0  0  0  0  0  0  0
  126.0887  121.7804   88.2191 C   0  0  0  0  0  0  0  0  0  0  0  0
  124.9334  121.0789   88.5533 C   0  0  0  0  0  0  0  0  0  0  0  0
  124.8754  120.1824   90.0210 Cl  0  0  0  0  0  0  0  0  0  0  0  0
  123.8267  121.0989   87.7095 C   0  0  0  0  0  0  0  0  0  0  0  0
  123.8625  121.8345   86.5198 C   0  0  0  0  0  0  0  0  0  0  0  0
  122.7459  121.8313   85.6696 N   0  0  0  0  0  0  0  0  0  0  0  0
  121.6732  122.4767   86.0147 C   0  0  0  0  0  0  0  0  0  0  0  0
  121.5123  123.2051   87.1539 N   0  0  0  0  0  0  0  0  0  0  0  0
  120.5785  122.4638   85.1961 N   0  0  0  0  0  0  0  0  0  0  0  0
  119.9862  123.5442   84.8244 C   0  0  0  0  0  0  0  0  0  0  0  0
  118.9136  123.4888   84.0002 N   0  0  0  0  0  0  0  0  0  0  0  0
  120.2446  124.8339   85.1443 N   0  0  0  0  0  0  0  0  0  0  0  0
  125.2060  124.3712   85.0905 H   0  0  0  0  0  0  0  0  0  0  0  0
  125.9758  122.9580   84.2925 H   0  0  0  0  0  0  0  0  0  0  0  0
  124.1873  123.1254   84.2925 H   0  0  0  0  0  0  0  0  0  0  0  0
  127.0541  123.0539   86.7598 H   0  0  0  0  0  0  0  0  0  0  0  0
  126.9578  121.7655   88.8932 H   0  0  0  0  0  0  0  0  0  0  0  0
  122.9214  120.5349   87.9786 H   0  0  0  0  0  0  0  0  0  0  0  0
  120.6184  123.6827   87.3378 H   0  0  0  0  0  0  0  0  0  0  0  0
  122.2844  123.2784   87.8316 H   0  0  0  0  0  0  0  0  0  0  0  0
  118.4442  124.3574   83.7067 H   0  0  0  0  0  0  0  0  0  0  0  0
  118.5668  122.5781   83.6668 H   0  0  0  0  0  0  0  0  0  0  0  0
  119.6632  125.5883   84.7521 H   0  0  0  0  0  0  0  0  0  0  0  0
  121.0226  125.0610   85.7800 H   0  0  0  0  0  0  0  0  0  0  0  0
  1  2  1  0
  2  3  2  0
  3  4  1  0
  4  5  2  0
  5  6  1  0
  5  7  1  0
  7  8  2  0
  8  9  1  0
  9 10  2  3
 10 11  1  0
 10 12  1  0
 12 13  2  3
 13 14  1  0
 13 15  1  0
  8  2  1  0
  1 16  1  0
  1 17  1  0
  1 18  1  0
  3 19  1  0
  4 20  1  0
  7 21  1  0
 11 22  1  0
 11 23  1  0
 14 24  1  0
 14 25  1  0
 15 26  1  0
 15 27  1  0
M  END
>  <loss>  (13) 
0.7501134872436523

>  <score>  (13) 
2.5753047466278076

$$$$
SJPLIZPAHCNLFD-UHFFFAOYSA-N
     RDKit          3D

 27 27  0  0  0  0  0  0  0  0999 V2000
  124.0763  123.8334   85.3591 C   0  0  0  0  0  0  0  0  0  0  0  0
  124.4315  122.8213   86.4128 C   0  0  0  0  0  0  0  0  0  0  0  0
  125.7786  122.5080   86.6518 C   0  0  0  0  0  0  0  0  0  0  0  0
  126.1253  121.5718   87.6268 C   0  0  0  0  0  0  0  0  0  0  0  0
  125.1271  120.9450   88.3671 C   0  0  0  0  0  0  0  0  0  0  0  0
  125.5536  119.7849   89.5644 Cl  0  0  0  0  0  0  0  0  0  0  0  0
  123.7870  121.2535   88.1496 C   0  0  0  0  0  0  0  0  0  0  0  0
  123.4309  122.2052   87.1876 C   0  0  0  0  0  0  0  0  0  0  0  0
  122.0706  122.4845   86.9855 N   0  0  0  0  0  0  0  0  0  0  0  0
  121.5406  122.2815   85.8173 C   0  0  0  0  0  0  0  0  0  0  0  0
  122.1854  121.8165   84.7120 N   0  0  0  0  0  0  0  0  0  0  0  0
  120.2120  122.5378   85.6287 N   0  0  0  0  0  0  0  0  0  0  0  0
  119.8058  123.5250   84.9052 C   0  0  0  0  0  0  0  0  0  0  0  0
  120.5347  124.4268   84.2067 N   0  0  0  0  0  0  0  0  0  0  0  0
  118.4777  123.7182   84.7318 N   0  0  0  0  0  0  0  0  0  0  0  0
  123.7490  124.7660   85.8419 H   0  0  0  0  0  0  0  0  0  0  0  0
  124.9575  124.0347   84.7322 H   0  0  0  0  0  0  0  0  0  0  0  0
  123.2626  123.4399   84.7322 H   0  0  0  0  0  0  0  0  0  0  0  0
  126.5668  123.0039   86.0662 H   0  0  0  0  0  0  0  0  0  0  0  0
  127.1827  121.3303   87.8096 H   0  0  0  0  0  0  0  0  0  0  0  0
  123.0058  120.7475   88.7358 H   0  0  0  0  0  0  0  0  0  0  0  0
  121.6694  121.6907   83.8295 H   0  0  0  0  0  0  0  0  0  0  0  0
  123.1892  121.5904   84.7583 H   0  0  0  0  0  0  0  0  0  0  0  0
  120.0607  125.1672   83.6700 H   0  0  0  0  0  0  0  0  0  0  0  0
  121.5633  124.3726   84.2120 H   0  0  0  0  0  0  0  0  0  0  0  0
  118.1424  124.5036   84.1560 H   0  0  0  0  0  0  0  0  0  0  0  0
  117.8021  123.0799   85.1757 H   0  0  0  0  0  0  0  0  0  0  0  0
  1  2  1  0
  2  3  2  0
  3  4  1  0
  4  5  2  0
  5  6  1  0
  5  7  1  0
  7  8  2  0
  8  9  1  0
  9 10  2  3
 10 11  1  0
 10 12  1  0
 12 13  2  3
 13 14  1  0
 13 15  1  0
  8  2  1  0
  1 16  1  0
  1 17  1  0
  1 18  1  0
  3 19  1  0
  4 20  1  0
  7 21  1  0
 11 22  1  0
 11 23  1  0
 14 24  1  0
 14 25  1  0
 15 26  1  0
 15 27  1  0
M  END
>  <loss>  (14) 
0.743024468421936

>  <score>  (14) 
2.5099716186523438

$$$$
SJPLIZPAHCNLFD-UHFFFAOYSA-N
     RDKit          3D

 27 27  0  0  0  0  0  0  0  0999 V2000
  124.9516  124.1426   85.6851 C   0  0  0  0  0  0  0  0  0  0  0  0
  124.8204  122.9332   86.5685 C   0  0  0  0  0  0  0  0  0  0  0  0
  125.9600  122.3754   87.1677 C   0  0  0  0  0  0  0  0  0  0  0  0
  125.8467  121.2606   87.9997 C   0  0  0  0  0  0  0  0  0  0  0  0
  124.5943  120.7014   88.2391 C   0  0  0  0  0  0  0  0  0  0  0  0
  124.4557  119.3319   89.2718 Cl  0  0  0  0  0  0  0  0  0  0  0  0
  123.4554  121.2415   87.6485 C   0  0  0  0  0  0  0  0  0  0  0  0
  123.5611  122.3483   86.7988 C   0  0  0  0  0  0  0  0  0  0  0  0
  122.4032  122.8945   86.2235 N   0  0  0  0  0  0  0  0  0  0  0  0
  122.1752  122.7271   84.9562 C   0  0  0  0  0  0  0  0  0  0  0  0
  122.9920  122.0909   84.0719 N   0  0  0  0  0  0  0  0  0  0  0  0
  121.0515  123.2695   84.3996 N   0  0  0  0  0  0  0  0  0  0  0  0
  119.9298  123.2825   85.0311 C   0  0  0  0  0  0  0  0  0  0  0  0
  119.6169  122.8033   86.2580 N   0  0  0  0  0  0  0  0  0  0  0  0
  118.8264  123.8196   84.4587 N   0  0  0  0  0  0  0  0  0  0  0  0
  125.0493  125.0434   86.3088 H   0  0  0  0  0  0  0  0  0  0  0  0
  125.8436  124.0378   85.0501 H   0  0  0  0  0  0  0  0  0  0  0  0
  124.0578  124.2315   85.0501 H   0  0  0  0  0  0  0  0  0  0  0  0
  126.9488  122.8194   86.9806 H   0  0  0  0  0  0  0  0  0  0  0  0
  126.7436  120.8253   88.4645 H   0  0  0  0  0  0  0  0  0  0  0  0
  122.4696  120.7971   87.8503 H   0  0  0  0  0  0  0  0  0  0  0  0
  122.7175  122.0116   83.0824 H   0  0  0  0  0  0  0  0  0  0  0  0
  123.8845  121.6889   84.3926 H   0  0  0  0  0  0  0  0  0  0  0  0
  118.6565  122.8974   86.6181 H   0  0  0  0  0  0  0  0  0  0  0  0
  120.3392  122.3445   86.8313 H   0  0  0  0  0  0  0  0  0  0  0  0
  117.9324  123.8264   84.9701 H   0  0  0  0  0  0  0  0  0  0  0  0
  118.8811  124.2214   83.5119 H   0  0  0  0  0  0  0  0  0  0  0  0
  1  2  1  0
  2  3  2  0
  3  4  1  0
  4  5  2  0
  5  6  1  0
  5  7  1  0
  7  8  2  0
  8  9  1  0
  9 10  2  3
 10 11  1  0
 10 12  1  0
 12 13  2  3
 13 14  1  0
 13 15  1  0
  8  2  1  0
  1 16  1  0
  1 17  1  0
  1 18  1  0
  3 19  1  0
  4 20  1  0
  7 21  1  0
 11 22  1  0
 11 23  1  0
 14 24  1  0
 14 25  1  0
 15 26  1  0
 15 27  1  0
M  END
>  <loss>  (15) 
0.7060947418212891

>  <score>  (15) 
2.300163507461548

$$$$
SJPLIZPAHCNLFD-UHFFFAOYSA-N
     RDKit          3D

 27 27  0  0  0  0  0  0  0  0999 V2000
  124.9901  124.0520   85.4129 C   0  0  0  0  0  0  0  0  0  0  0  0
  124.8540  122.9249   86.3985 C   0  0  0  0  0  0  0  0  0  0  0  0
  125.9982  122.3683   86.9899 C   0  0  0  0  0  0  0  0  0  0  0  0
  125.8812  121.3305   87.9156 C   0  0  0  0  0  0  0  0  0  0  0  0
  124.6208  120.8476   88.2568 C   0  0  0  0  0  0  0  0  0  0  0  0
  124.4781  119.5734   89.4046 Cl  0  0  0  0  0  0  0  0  0  0  0  0
  123.4769  121.3872   87.6754 C   0  0  0  0  0  0  0  0  0  0  0  0
  123.5852  122.4160   86.7330 C   0  0  0  0  0  0  0  0  0  0  0  0
  122.4233  122.9637   86.1672 N   0  0  0  0  0  0  0  0  0  0  0  0
  122.1109  122.6790   84.9395 C   0  0  0  0  0  0  0  0  0  0  0  0
  122.8398  121.9097   84.0846 N   0  0  0  0  0  0  0  0  0  0  0  0
  120.9840  123.2230   84.3907 N   0  0  0  0  0  0  0  0  0  0  0  0
  119.9014  123.3543   85.0747 C   0  0  0  0  0  0  0  0  0  0  0  0
  119.6360  123.0114   86.3573 N   0  0  0  0  0  0  0  0  0  0  0  0
  118.7937  123.8905   84.5098 N   0  0  0  0  0  0  0  0  0  0  0  0
  125.1048  125.0019   85.9557 H   0  0  0  0  0  0  0  0  0  0  0  0
  125.8742  123.8818   84.7810 H   0  0  0  0  0  0  0  0  0  0  0  0
  124.0909  124.0971   84.7810 H   0  0  0  0  0  0  0  0  0  0  0  0
  126.9937  122.7523   86.7222 H   0  0  0  0  0  0  0  0  0  0  0  0
  126.7816  120.8956   88.3741 H   0  0  0  0  0  0  0  0  0  0  0  0
  122.4852  121.0039   87.9575 H   0  0  0  0  0  0  0  0  0  0  0  0
  122.5022  121.7438   83.1257 H   0  0  0  0  0  0  0  0  0  0  0  0
  123.7288  121.4936   84.3968 H   0  0  0  0  0  0  0  0  0  0  0  0
  118.7028  123.1890   86.7553 H   0  0  0  0  0  0  0  0  0  0  0  0
  120.3673  122.5728   86.9350 H   0  0  0  0  0  0  0  0  0  0  0  0
  117.9312  123.9924   85.0634 H   0  0  0  0  0  0  0  0  0  0  0  0
  118.8138  124.1965   83.5265 H   0  0  0  0  0  0  0  0  0  0  0  0
  1  2  1  0
  2  3  2  0
  3  4  1  0
  4  5  2  0
  5  6  1  0
  5  7  1  0
  7  8  2  0
  8  9  1  0
  9 10  2  3
 10 11  1  0
 10 12  1  0
 12 13  2  3
 13 14  1  0
 13 15  1  0
  8  2  1  0
  1 16  1  0
  1 17  1  0
  1 18  1  0
  3 19  1  0
  4 20  1  0
  7 21  1  0
 11 22  1  0
 11 23  1  0
 14 24  1  0
 14 25  1  0
 15 26  1  0
 15 27  1  0
M  END
>  <loss>  (16) 
0.7597941756248474

>  <score>  (16) 
2.416022777557373

$$$$
SJPLIZPAHCNLFD-UHFFFAOYSA-N
     RDKit          3D

 27 27  0  0  0  0  0  0  0  0999 V2000
  122.2971  123.1918   87.7402 C   0  0  0  0  0  0  0  0  0  0  0  0
  123.5524  122.4713   87.3335 C   0  0  0  0  0  0  0  0  0  0  0  0
  124.1624  121.5813   88.2322 C   0  0  0  0  0  0  0  0  0  0  0  0
  125.3256  120.9000   87.8735 C   0  0  0  0  0  0  0  0  0  0  0  0
  125.8842  121.1068   86.6158 C   0  0  0  0  0  0  0  0  0  0  0  0
  127.3238  120.2721   86.1742 Cl  0  0  0  0  0  0  0  0  0  0  0  0
  125.2864  121.9798   85.7113 C   0  0  0  0  0  0  0  0  0  0  0  0
  124.1044  122.6476   86.0491 C   0  0  0  0  0  0  0  0  0  0  0  0
  123.5347  123.5321   85.1163 N   0  0  0  0  0  0  0  0  0  0  0  0
  122.2510  123.5135   84.9128 C   0  0  0  0  0  0  0  0  0  0  0  0
  121.7166  124.4253   84.0646 N   0  0  0  0  0  0  0  0  0  0  0  0
  121.4067  122.6317   85.5148 N   0  0  0  0  0  0  0  0  0  0  0  0
  120.1602  122.6548   85.1976 C   0  0  0  0  0  0  0  0  0  0  0  0
  119.4929  123.4446   84.3243 N   0  0  0  0  0  0  0  0  0  0  0  0
  119.2993  121.7832   85.7725 N   0  0  0  0  0  0  0  0  0  0  0  0
  122.2343  123.2278   88.8378 H   0  0  0  0  0  0  0  0  0  0  0  0
  122.3164  124.2163   87.3402 H   0  0  0  0  0  0  0  0  0  0  0  0
  121.4222  122.6584   87.3402 H   0  0  0  0  0  0  0  0  0  0  0  0
  123.7198  121.4201   89.2263 H   0  0  0  0  0  0  0  0  0  0  0  0
  125.7988  120.2031   88.5809 H   0  0  0  0  0  0  0  0  0  0  0  0
  125.7457  122.1454   84.7256 H   0  0  0  0  0  0  0  0  0  0  0  0
  120.7020  124.4308   83.8869 H   0  0  0  0  0  0  0  0  0  0  0  0
  122.3249  125.1128   83.5976 H   0  0  0  0  0  0  0  0  0  0  0  0
  118.4785  123.3240   84.1922 H   0  0  0  0  0  0  0  0  0  0  0  0
  119.9994  124.1662   83.7916 H   0  0  0  0  0  0  0  0  0  0  0  0
  118.3013  121.8018   85.5185 H   0  0  0  0  0  0  0  0  0  0  0  0
  119.6420  121.1012   86.4641 H   0  0  0  0  0  0  0  0  0  0  0  0
  1  2  1  0
  2  3  2  0
  3  4  1  0
  4  5  2  0
  5  6  1  0
  5  7  1  0
  7  8  2  0
  8  9  1  0
  9 10  2  3
 10 11  1  0
 10 12  1  0
 12 13  2  3
 13 14  1  0
 13 15  1  0
  8  2  1  0
  1 16  1  0
  1 17  1  0
  1 18  1  0
  3 19  1  0
  4 20  1  0
  7 21  1  0
 11 22  1  0
 11 23  1  0
 14 24  1  0
 14 25  1  0
 15 26  1  0
 15 27  1  0
M  END
>  <loss>  (17) 
0.8189456462860107

>  <score>  (17) 
2.2358357906341553

$$$$
SJPLIZPAHCNLFD-UHFFFAOYSA-N
     RDKit          3D

 27 27  0  0  0  0  0  0  0  0999 V2000
  125.0056  124.3465   86.0946 C   0  0  0  0  0  0  0  0  0  0  0  0
  124.9520  123.0092   86.7795 C   0  0  0  0  0  0  0  0  0  0  0  0
  125.8152  122.7354   87.8514 C   0  0  0  0  0  0  0  0  0  0  0  0
  125.7835  121.4919   88.4841 C   0  0  0  0  0  0  0  0  0  0  0  0
  124.8929  120.5156   88.0456 C   0  0  0  0  0  0  0  0  0  0  0  0
  124.8617  118.9801   88.8220 Cl  0  0  0  0  0  0  0  0  0  0  0  0
  124.0286  120.7736   86.9855 C   0  0  0  0  0  0  0  0  0  0  0  0
  124.0405  122.0234   86.3566 C   0  0  0  0  0  0  0  0  0  0  0  0
  123.1763  122.2640   85.2773 N   0  0  0  0  0  0  0  0  0  0  0  0
  121.9310  122.5550   85.5033 C   0  0  0  0  0  0  0  0  0  0  0  0
  121.3501  122.6766   86.7288 N   0  0  0  0  0  0  0  0  0  0  0  0
  121.0827  122.7754   84.4544 N   0  0  0  0  0  0  0  0  0  0  0  0
  119.9809  123.4270   84.5876 C   0  0  0  0  0  0  0  0  0  0  0  0
  119.1755  123.6368   83.5197 N   0  0  0  0  0  0  0  0  0  0  0  0
  119.4190  123.9725   85.6918 N   0  0  0  0  0  0  0  0  0  0  0  0
  125.0376  125.1447   86.8508 H   0  0  0  0  0  0  0  0  0  0  0  0
  125.9067  124.4007   85.4660 H   0  0  0  0  0  0  0  0  0  0  0  0
  124.1118  124.4726   85.4660 H   0  0  0  0  0  0  0  0  0  0  0  0
  126.5212  123.5057   88.1951 H   0  0  0  0  0  0  0  0  0  0  0  0
  126.4598  121.2838   89.3263 H   0  0  0  0  0  0  0  0  0  0  0  0
  123.3343  119.9930   86.6414 H   0  0  0  0  0  0  0  0  0  0  0  0
  120.3500  122.9116   86.8037 H   0  0  0  0  0  0  0  0  0  0  0  0
  121.9106  122.5335   87.5810 H   0  0  0  0  0  0  0  0  0  0  0  0
  118.2951  124.1590   83.6334 H   0  0  0  0  0  0  0  0  0  0  0  0
  119.4432  123.2741   82.5936 H   0  0  0  0  0  0  0  0  0  0  0  0
  118.5188  124.4677   85.6204 H   0  0  0  0  0  0  0  0  0  0  0  0
  119.8918  123.8922   86.6034 H   0  0  0  0  0  0  0  0  0  0  0  0
  1  2  1  0
  2  3  2  0
  3  4  1  0
  4  5  2  0
  5  6  1  0
  5  7  1  0
  7  8  2  0
  8  9  1  0
  9 10  2  3
 10 11  1  0
 10 12  1  0
 12 13  2  3
 13 14  1  0
 13 15  1  0
  8  2  1  0
  1 16  1  0
  1 17  1  0
  1 18  1  0
  3 19  1  0
  4 20  1  0
  7 21  1  0
 11 22  1  0
 11 23  1  0
 14 24  1  0
 14 25  1  0
 15 26  1  0
 15 27  1  0
M  END
>  <loss>  (18) 
0.759765088558197

>  <score>  (18) 
1.5473687648773193

$$$$
SJPLIZPAHCNLFD-UHFFFAOYSA-N
     RDKit          3D

 27 27  0  0  0  0  0  0  0  0999 V2000
  121.3466  123.0006   85.9185 C   0  0  0  0  0  0  0  0  0  0  0  0
  122.8075  122.6475   85.9548 C   0  0  0  0  0  0  0  0  0  0  0  0
  123.6615  123.0910   84.9337 C   0  0  0  0  0  0  0  0  0  0  0  0
  125.0163  122.7561   84.9504 C   0  0  0  0  0  0  0  0  0  0  0  0
  125.5221  121.9730   85.9846 C   0  0  0  0  0  0  0  0  0  0  0  0
  127.1912  121.5544   85.9985 Cl  0  0  0  0  0  0  0  0  0  0  0  0
  124.6877  121.5282   87.0060 C   0  0  0  0  0  0  0  0  0  0  0  0
  123.3319  121.8738   87.0074 C   0  0  0  0  0  0  0  0  0  0  0  0
  122.4982  121.4035   88.0338 N   0  0  0  0  0  0  0  0  0  0  0  0
  122.9557  121.3201   89.2463 C   0  0  0  0  0  0  0  0  0  0  0  0
  124.2064  121.6731   89.6529 N   0  0  0  0  0  0  0  0  0  0  0  0
  122.1514  120.8487   90.2460 N   0  0  0  0  0  0  0  0  0  0  0  0
  121.4331  121.6290   90.9749 C   0  0  0  0  0  0  0  0  0  0  0  0
  120.6379  121.1203   91.9454 N   0  0  0  0  0  0  0  0  0  0  0  0
  121.3279  122.9785   90.9653 N   0  0  0  0  0  0  0  0  0  0  0  0
  120.9659  123.0926   86.9464 H   0  0  0  0  0  0  0  0  0  0  0  0
  121.2135  123.9568   85.3912 H   0  0  0  0  0  0  0  0  0  0  0  0
  120.7914  122.2108   85.3912 H   0  0  0  0  0  0  0  0  0  0  0  0
  123.2608  123.7066   84.1148 H   0  0  0  0  0  0  0  0  0  0  0  0
  125.6821  123.1095   84.1493 H   0  0  0  0  0  0  0  0  0  0  0  0
  125.0953  120.9034   87.8144 H   0  0  0  0  0  0  0  0  0  0  0  0
  124.4750  121.5689   90.6418 H   0  0  0  0  0  0  0  0  0  0  0  0
  124.8839  122.0443   88.9716 H   0  0  0  0  0  0  0  0  0  0  0  0
  120.0655  121.7505   92.5252 H   0  0  0  0  0  0  0  0  0  0  0  0
  120.6052  120.1031   92.1040 H   0  0  0  0  0  0  0  0  0  0  0  0
  120.6956  123.4506   91.6272 H   0  0  0  0  0  0  0  0  0  0  0  0
  121.8803  123.5333   90.2960 H   0  0  0  0  0  0  0  0  0  0  0  0
  1  2  1  0
  2  3  2  0
  3  4  1  0
  4  5  2  0
  5  6  1  0
  5  7  1  0
  7  8  2  0
  8  9  1  0
  9 10  2  3
 10 11  1  0
 10 12  1  0
 12 13  2  3
 13 14  1  0
 13 15  1  0
  8  2  1  0
  1 16  1  0
  1 17  1  0
  1 18  1  0
  3 19  1  0
  4 20  1  0
  7 21  1  0
 11 22  1  0
 11 23  1  0
 14 24  1  0
 14 25  1  0
 15 26  1  0
 15 27  1  0
M  END
>  <loss>  (19) 
0.68221116065979

>  <score>  (19) 
-0.6415266990661621

$$$$
SJPLIZPAHCNLFD-UHFFFAOYSA-N
     RDKit          3D

 27 27  0  0  0  0  0  0  0  0999 V2000
  121.3421  123.0079   85.9401 C   0  0  0  0  0  0  0  0  0  0  0  0
  122.7996  122.6396   85.9641 C   0  0  0  0  0  0  0  0  0  0  0  0
  123.6530  123.1068   84.9524 C   0  0  0  0  0  0  0  0  0  0  0  0
  125.0085  122.7751   84.9607 C   0  0  0  0  0  0  0  0  0  0  0  0
  125.5167  121.9752   85.9801 C   0  0  0  0  0  0  0  0  0  0  0  0
  127.1865  121.5595   85.9866 Cl  0  0  0  0  0  0  0  0  0  0  0  0
  124.6852  121.5135   86.9968 C   0  0  0  0  0  0  0  0  0  0  0  0
  123.3288  121.8570   87.0075 C   0  0  0  0  0  0  0  0  0  0  0  0
  122.5161  121.3656   88.0406 N   0  0  0  0  0  0  0  0  0  0  0  0
  122.9819  121.3092   89.2517 C   0  0  0  0  0  0  0  0  0  0  0  0
  124.2296  121.6803   89.6511 N   0  0  0  0  0  0  0  0  0  0  0  0
  122.1822  120.8466   90.2582 N   0  0  0  0  0  0  0  0  0  0  0  0
  121.4840  121.6439   90.9929 C   0  0  0  0  0  0  0  0  0  0  0  0
  121.3694  122.9907   90.9191 N   0  0  0  0  0  0  0  0  0  0  0  0
  120.6896  121.1299   91.9603 N   0  0  0  0  0  0  0  0  0  0  0  0
  120.9706  123.1018   86.9712 H   0  0  0  0  0  0  0  0  0  0  0  0
  121.2148  123.9665   85.4157 H   0  0  0  0  0  0  0  0  0  0  0  0
  120.7747  122.2249   85.4157 H   0  0  0  0  0  0  0  0  0  0  0  0
  123.2505  123.7389   84.1472 H   0  0  0  0  0  0  0  0  0  0  0  0
  125.6723  123.1441   84.1650 H   0  0  0  0  0  0  0  0  0  0  0  0
  125.0959  120.8766   87.7942 H   0  0  0  0  0  0  0  0  0  0  0  0
  124.5000  121.5949   90.6413 H   0  0  0  0  0  0  0  0  0  0  0  0
  124.9030  122.0465   88.9631 H   0  0  0  0  0  0  0  0  0  0  0  0
  120.7651  123.4934   91.5848 H   0  0  0  0  0  0  0  0  0  0  0  0
  121.8864  123.5128   90.1973 H   0  0  0  0  0  0  0  0  0  0  0  0
  120.1277  121.7576   92.5529 H   0  0  0  0  0  0  0  0  0  0  0  0
  120.6469  120.1108   92.1042 H   0  0  0  0  0  0  0  0  0  0  0  0
  1  2  1  0
  2  3  2  0
  3  4  1  0
  4  5  2  0
  5  6  1  0
  5  7  1  0
  7  8  2  0
  8  9  1  0
  9 10  2  3
 10 11  1  0
 10 12  1  0
 12 13  2  3
 13 14  1  0
 13 15  1  0
  8  2  1  0
  1 16  1  0
  1 17  1  0
  1 18  1  0
  3 19  1  0
  4 20  1  0
  7 21  1  0
 11 22  1  0
 11 23  1  0
 14 24  1  0
 14 25  1  0
 15 26  1  0
 15 27  1  0
M  END
>  <loss>  (20) 
0.6689261198043823

>  <score>  (20) 
-0.8547143936157227

$$$$
SJPLIZPAHCNLFD-UHFFFAOYSA-N
     RDKit          3D

 27 27  0  0  0  0  0  0  0  0999 V2000
  121.2052  122.8530   86.6636 C   0  0  0  0  0  0  0  0  0  0  0  0
  122.6446  122.5727   86.3350 C   0  0  0  0  0  0  0  0  0  0  0  0
  123.0683  122.6079   84.9965 C   0  0  0  0  0  0  0  0  0  0  0  0
  124.3983  122.3449   84.6673 C   0  0  0  0  0  0  0  0  0  0  0  0
  125.3107  122.0478   85.6749 C   0  0  0  0  0  0  0  0  0  0  0  0
  126.9550  121.7337   85.2734 Cl  0  0  0  0  0  0  0  0  0  0  0  0
  124.9041  122.0003   87.0052 C   0  0  0  0  0  0  0  0  0  0  0  0
  123.5668  122.2335   87.3443 C   0  0  0  0  0  0  0  0  0  0  0  0
  123.1993  122.1845   88.7004 N   0  0  0  0  0  0  0  0  0  0  0  0
  122.8648  121.0476   89.2339 C   0  0  0  0  0  0  0  0  0  0  0  0
  122.4669  121.0328   90.5312 N   0  0  0  0  0  0  0  0  0  0  0  0
  122.8453  119.8775   88.5394 N   0  0  0  0  0  0  0  0  0  0  0  0
  122.2944  118.8551   89.0942 C   0  0  0  0  0  0  0  0  0  0  0  0
  122.2637  117.6638   88.4532 N   0  0  0  0  0  0  0  0  0  0  0  0
  121.6773  118.7425   90.2945 N   0  0  0  0  0  0  0  0  0  0  0  0
  121.0767  122.8780   87.7558 H   0  0  0  0  0  0  0  0  0  0  0  0
  120.9144  123.8246   86.2378 H   0  0  0  0  0  0  0  0  0  0  0  0
  120.5711  122.0614   86.2378 H   0  0  0  0  0  0  0  0  0  0  0  0
  122.3459  122.8447   84.2015 H   0  0  0  0  0  0  0  0  0  0  0  0
  124.7238  122.3722   83.6169 H   0  0  0  0  0  0  0  0  0  0  0  0
  125.6379  121.7784   87.7940 H   0  0  0  0  0  0  0  0  0  0  0  0
  122.1968  120.1444   90.9770 H   0  0  0  0  0  0  0  0  0  0  0  0
  122.4350  121.9099   91.0702 H   0  0  0  0  0  0  0  0  0  0  0  0
  121.8215  116.8488   88.9018 H   0  0  0  0  0  0  0  0  0  0  0  0
  122.6825  117.5719   87.5167 H   0  0  0  0  0  0  0  0  0  0  0  0
  121.2854  117.8366   90.5891 H   0  0  0  0  0  0  0  0  0  0  0  0
  121.5999  119.5626   90.9128 H   0  0  0  0  0  0  0  0  0  0  0  0
  1  2  1  0
  2  3  2  0
  3  4  1  0
  4  5  2  0
  5  6  1  0
  5  7  1  0
  7  8  2  0
  8  9  1  0
  9 10  2  3
 10 11  1  0
 10 12  1  0
 12 13  2  3
 13 14  1  0
 13 15  1  0
  8  2  1  0
  1 16  1  0
  1 17  1  0
  1 18  1  0
  3 19  1  0
  4 20  1  0
  7 21  1  0
 11 22  1  0
 11 23  1  0
 14 24  1  0
 14 25  1  0
 15 26  1  0
 15 27  1  0
M  END
>  <loss>  (21) 
0.7950000762939453

>  <score>  (21) 
-0.6712608337402344

$$$$
SJPLIZPAHCNLFD-UHFFFAOYSA-N
     RDKit          3D

 27 27  0  0  0  0  0  0  0  0999 V2000
  121.3545  123.0179   85.9349 C   0  0  0  0  0  0  0  0  0  0  0  0
  122.8107  122.6448   85.9558 C   0  0  0  0  0  0  0  0  0  0  0  0
  123.6644  123.0932   84.9365 C   0  0  0  0  0  0  0  0  0  0  0  0
  125.0202  122.7629   84.9542 C   0  0  0  0  0  0  0  0  0  0  0  0
  125.5289  121.9867   85.9922 C   0  0  0  0  0  0  0  0  0  0  0  0
  127.2026  121.5874   86.0165 Cl  0  0  0  0  0  0  0  0  0  0  0  0
  124.6934  121.5314   87.0081 C   0  0  0  0  0  0  0  0  0  0  0  0
  123.3292  121.8426   86.9895 C   0  0  0  0  0  0  0  0  0  0  0  0
  122.5006  121.3923   88.0291 N   0  0  0  0  0  0  0  0  0  0  0  0
  122.9684  121.3207   89.2383 C   0  0  0  0  0  0  0  0  0  0  0  0
  124.2438  121.6033   89.6224 N   0  0  0  0  0  0  0  0  0  0  0  0
  122.1603  120.8721   90.2445 N   0  0  0  0  0  0  0  0  0  0  0  0
  121.4826  121.6878   90.9742 C   0  0  0  0  0  0  0  0  0  0  0  0
  121.4206  123.0398   90.9396 N   0  0  0  0  0  0  0  0  0  0  0  0
  120.6923  121.2227   91.9706 N   0  0  0  0  0  0  0  0  0  0  0  0
  120.9854  123.1125   86.9668 H   0  0  0  0  0  0  0  0  0  0  0  0
  121.2292  123.9771   85.4113 H   0  0  0  0  0  0  0  0  0  0  0  0
  120.7834  122.2370   85.4113 H   0  0  0  0  0  0  0  0  0  0  0  0
  123.2625  123.7089   84.1184 H   0  0  0  0  0  0  0  0  0  0  0  0
  125.6846  123.1144   84.1511 H   0  0  0  0  0  0  0  0  0  0  0  0
  125.1066  120.9253   87.8278 H   0  0  0  0  0  0  0  0  0  0  0  0
  124.5152  121.5145   90.6120 H   0  0  0  0  0  0  0  0  0  0  0  0
  124.9371  121.9059   88.9234 H   0  0  0  0  0  0  0  0  0  0  0  0
  120.8185  123.5450   91.6053 H   0  0  0  0  0  0  0  0  0  0  0  0
  121.9756  123.5632   90.2475 H   0  0  0  0  0  0  0  0  0  0  0  0
  120.1530  121.8815   92.5503 H   0  0  0  0  0  0  0  0  0  0  0  0
  120.6305  120.2101   92.1488 H   0  0  0  0  0  0  0  0  0  0  0  0
  1  2  1  0
  2  3  2  0
  3  4  1  0
  4  5  2  0
  5  6  1  0
  5  7  1  0
  7  8  2  0
  8  9  1  0
  9 10  2  3
 10 11  1  0
 10 12  1  0
 12 13  2  3
 13 14  1  0
 13 15  1  0
  8  2  1  0
  1 16  1  0
  1 17  1  0
  1 18  1  0
  3 19  1  0
  4 20  1  0
  7 21  1  0
 11 22  1  0
 11 23  1  0
 14 24  1  0
 14 25  1  0
 15 26  1  0
 15 27  1  0
M  END
>  <loss>  (22) 
0.6668099164962769

>  <score>  (22) 
-1.576685905456543

$$$$
SJPLIZPAHCNLFD-UHFFFAOYSA-N
     RDKit          3D

 27 27  0  0  0  0  0  0  0  0999 V2000
  121.0650  122.1712   86.5059 C   0  0  0  0  0  0  0  0  0  0  0  0
  122.5502  122.2703   86.2950 C   0  0  0  0  0  0  0  0  0  0  0  0
  123.0529  123.1215   85.2976 C   0  0  0  0  0  0  0  0  0  0  0  0
  124.4277  123.2309   85.0877 C   0  0  0  0  0  0  0  0  0  0  0  0
  125.3050  122.4890   85.8729 C   0  0  0  0  0  0  0  0  0  0  0  0
  127.0016  122.6175   85.6103 Cl  0  0  0  0  0  0  0  0  0  0  0  0
  124.8218  121.6472   86.8707 C   0  0  0  0  0  0  0  0  0  0  0  0
  123.4467  121.5501   87.1092 C   0  0  0  0  0  0  0  0  0  0  0  0
  122.9927  120.6803   88.1163 N   0  0  0  0  0  0  0  0  0  0  0  0
  122.6370  121.1618   89.2702 C   0  0  0  0  0  0  0  0  0  0  0  0
  122.1330  120.3128   90.1985 N   0  0  0  0  0  0  0  0  0  0  0  0
  122.7327  122.4795   89.5971 N   0  0  0  0  0  0  0  0  0  0  0  0
  122.2127  122.8811   90.7031 C   0  0  0  0  0  0  0  0  0  0  0  0
  121.5449  122.1928   91.6581 N   0  0  0  0  0  0  0  0  0  0  0  0
  122.3013  124.1838   91.0590 N   0  0  0  0  0  0  0  0  0  0  0  0
  120.8480  122.1567   87.5842 H   0  0  0  0  0  0  0  0  0  0  0  0
  120.5703  123.0383   86.0440 H   0  0  0  0  0  0  0  0  0  0  0  0
  120.6900  121.2460   86.0440 H   0  0  0  0  0  0  0  0  0  0  0  0
  122.3577  123.7062   84.6773 H   0  0  0  0  0  0  0  0  0  0  0  0
  124.8161  123.8999   84.3057 H   0  0  0  0  0  0  0  0  0  0  0  0
  125.5250  121.0553   87.4750 H   0  0  0  0  0  0  0  0  0  0  0  0
  121.8440  120.6702   91.1202 H   0  0  0  0  0  0  0  0  0  0  0  0
  122.0388  119.3102   89.9822 H   0  0  0  0  0  0  0  0  0  0  0  0
  121.1916  122.6816   92.4931 H   0  0  0  0  0  0  0  0  0  0  0  0
  121.3900  121.1803   91.5500 H   0  0  0  0  0  0  0  0  0  0  0  0
  121.8849  124.5052   91.9446 H   0  0  0  0  0  0  0  0  0  0  0  0
  122.7851  124.8538   90.4443 H   0  0  0  0  0  0  0  0  0  0  0  0
  1  2  1  0
  2  3  2  0
  3  4  1  0
  4  5  2  0
  5  6  1  0
  5  7  1  0
  7  8  2  0
  8  9  1  0
  9 10  2  3
 10 11  1  0
 10 12  1  0
 12 13  2  3
 13 14  1  0
 13 15  1  0
  8  2  1  0
  1 16  1  0
  1 17  1  0
  1 18  1  0
  3 19  1  0
  4 20  1  0
  7 21  1  0
 11 22  1  0
 11 23  1  0
 14 24  1  0
 14 25  1  0
 15 26  1  0
 15 27  1  0
M  END
>  <loss>  (23) 
0.6818560361862183

>  <score>  (23) 
-2.106106996536255

$$$$
SJPLIZPAHCNLFD-UHFFFAOYSA-N
     RDKit          3D

 27 27  0  0  0  0  0  0  0  0999 V2000
  121.1524  122.1280   86.4944 C   0  0  0  0  0  0  0  0  0  0  0  0
  122.6432  122.2125   86.3200 C   0  0  0  0  0  0  0  0  0  0  0  0
  123.1779  123.0419   85.3209 C   0  0  0  0  0  0  0  0  0  0  0  0
  124.5584  123.1374   85.1446 C   0  0  0  0  0  0  0  0  0  0  0  0
  125.4095  122.4034   85.9653 C   0  0  0  0  0  0  0  0  0  0  0  0
  127.1132  122.5148   85.7443 Cl  0  0  0  0  0  0  0  0  0  0  0  0
  124.8944  121.5833   86.9652 C   0  0  0  0  0  0  0  0  0  0  0  0
  123.5129  121.5005   87.1698 C   0  0  0  0  0  0  0  0  0  0  0  0
  123.0265  120.6523   88.1802 N   0  0  0  0  0  0  0  0  0  0  0  0
  122.6293  121.1588   89.3096 C   0  0  0  0  0  0  0  0  0  0  0  0
  122.0956  120.3294   90.2390 N   0  0  0  0  0  0  0  0  0  0  0  0
  122.7097  122.4840   89.6092 N   0  0  0  0  0  0  0  0  0  0  0  0
  122.1693  122.9052   90.6981 C   0  0  0  0  0  0  0  0  0  0  0  0
  121.4919  122.2323   91.6573 N   0  0  0  0  0  0  0  0  0  0  0  0
  122.2423  124.2159   91.0269 N   0  0  0  0  0  0  0  0  0  0  0  0
  120.9088  122.1142   87.5670 H   0  0  0  0  0  0  0  0  0  0  0  0
  120.6779  123.0007   86.0219 H   0  0  0  0  0  0  0  0  0  0  0  0
  120.7795  121.2073   86.0219 H   0  0  0  0  0  0  0  0  0  0  0  0
  122.5033  123.6204   84.6726 H   0  0  0  0  0  0  0  0  0  0  0  0
  124.9720  123.7894   84.3611 H   0  0  0  0  0  0  0  0  0  0  0  0
  125.5772  120.9973   87.5978 H   0  0  0  0  0  0  0  0  0  0  0  0
  121.7735  120.7068   91.1417 H   0  0  0  0  0  0  0  0  0  0  0  0
  122.0120  119.3218   90.0427 H   0  0  0  0  0  0  0  0  0  0  0  0
  121.1218  122.7361   92.4759 H   0  0  0  0  0  0  0  0  0  0  0  0
  121.3466  121.2165   91.5688 H   0  0  0  0  0  0  0  0  0  0  0  0
  121.8096  124.5530   91.8987 H   0  0  0  0  0  0  0  0  0  0  0  0
  122.7305  124.8764   90.4053 H   0  0  0  0  0  0  0  0  0  0  0  0
  1  2  1  0
  2  3  2  0
  3  4  1  0
  4  5  2  0
  5  6  1  0
  5  7  1  0
  7  8  2  0
  8  9  1  0
  9 10  2  3
 10 11  1  0
 10 12  1  0
 12 13  2  3
 13 14  1  0
 13 15  1  0
  8  2  1  0
  1 16  1  0
  1 17  1  0
  1 18  1  0
  3 19  1  0
  4 20  1  0
  7 21  1  0
 11 22  1  0
 11 23  1  0
 14 24  1  0
 14 25  1  0
 15 26  1  0
 15 27  1  0
M  END
>  <loss>  (24) 
0.6879417300224304

>  <score>  (24) 
-2.457984685897827

$$$$
SJPLIZPAHCNLFD-UHFFFAOYSA-N
     RDKit          3D

 27 27  0  0  0  0  0  0  0  0999 V2000
  121.1338  122.8880   86.8009 C   0  0  0  0  0  0  0  0  0  0  0  0
  122.5548  122.6363   86.3817 C   0  0  0  0  0  0  0  0  0  0  0  0
  122.9062  122.7462   85.0265 C   0  0  0  0  0  0  0  0  0  0  0  0
  124.2179  122.5110   84.6135 C   0  0  0  0  0  0  0  0  0  0  0  0
  125.1842  122.1671   85.5538 C   0  0  0  0  0  0  0  0  0  0  0  0
  126.8061  121.8870   85.0493 Cl  0  0  0  0  0  0  0  0  0  0  0  0
  124.8493  122.0455   86.8993 C   0  0  0  0  0  0  0  0  0  0  0  0
  123.5310  122.2503   87.3210 C   0  0  0  0  0  0  0  0  0  0  0  0
  123.2366  122.1261   88.6900 N   0  0  0  0  0  0  0  0  0  0  0  0
  122.9590  120.9561   89.1831 C   0  0  0  0  0  0  0  0  0  0  0  0
  122.6304  120.8680   90.4968 N   0  0  0  0  0  0  0  0  0  0  0  0
  122.9322  119.8207   88.4335 N   0  0  0  0  0  0  0  0  0  0  0  0
  122.3773  118.7756   88.9402 C   0  0  0  0  0  0  0  0  0  0  0  0
  122.3392  117.6165   88.2430 N   0  0  0  0  0  0  0  0  0  0  0  0
  121.7624  118.6087   90.1352 N   0  0  0  0  0  0  0  0  0  0  0  0
  121.0719  122.8990   87.8991 H   0  0  0  0  0  0  0  0  0  0  0  0
  120.8013  123.8591   86.4052 H   0  0  0  0  0  0  0  0  0  0  0  0
  120.4879  122.0903   86.4052 H   0  0  0  0  0  0  0  0  0  0  0  0
  122.1414  123.0200   84.2848 H   0  0  0  0  0  0  0  0  0  0  0  0
  124.4868  122.5969   83.5503 H   0  0  0  0  0  0  0  0  0  0  0  0
  125.6251  121.7870   87.6350 H   0  0  0  0  0  0  0  0  0  0  0  0
  122.4062  119.9521   90.9113 H   0  0  0  0  0  0  0  0  0  0  0  0
  122.6051  121.7170   91.0794 H   0  0  0  0  0  0  0  0  0  0  0  0
  121.8940  116.7832   88.6531 H   0  0  0  0  0  0  0  0  0  0  0  0
  122.7555  117.5675   87.3021 H   0  0  0  0  0  0  0  0  0  0  0  0
  121.3666  117.6918   90.3871 H   0  0  0  0  0  0  0  0  0  0  0  0
  121.6905  119.3987   90.7922 H   0  0  0  0  0  0  0  0  0  0  0  0
  1  2  1  0
  2  3  2  0
  3  4  1  0
  4  5  2  0
  5  6  1  0
  5  7  1  0
  7  8  2  0
  8  9  1  0
  9 10  2  3
 10 11  1  0
 10 12  1  0
 12 13  2  3
 13 14  1  0
 13 15  1  0
  8  2  1  0
  1 16  1  0
  1 17  1  0
  1 18  1  0
  3 19  1  0
  4 20  1  0
  7 21  1  0
 11 22  1  0
 11 23  1  0
 14 24  1  0
 14 25  1  0
 15 26  1  0
 15 27  1  0
M  END
>  <loss>  (25) 
0.7933055758476257

>  <score>  (25) 
-2.2627153396606445

$$$$
