SOJQYLKYPWFEBD-UHFFFAOYSA-N
     RDKit          3D

 51 51  0  0  0  0  0  0  0  0999 V2000
  116.9372  123.7903   84.4001 C   0  0  0  0  0  0  0  0  0  0  0  0
  117.7941  123.8245   85.5415 O   0  0  0  0  0  0  0  0  0  0  0  0
  119.0656  123.4309   85.2862 C   0  0  0  0  0  0  0  0  0  0  0  0
  119.4126  122.6888   84.3789 O   0  0  0  0  0  0  0  0  0  0  0  0
  119.9016  124.0007   86.1988 N   0  0  0  0  0  0  0  0  0  0  0  0
  120.7916  123.2247   87.0335 C   0  0  0  0  0  0  0  0  0  0  0  0
  121.3419  121.9866   86.3137 C   0  0  0  0  0  0  0  0  0  0  0  0
  122.8247  121.7998   86.5503 C   0  0  0  0  0  0  0  0  0  0  0  0
  123.2423  121.6481   87.8896 C   0  0  0  0  0  0  0  0  0  0  0  0
  124.5914  121.4895   88.2279 C   0  0  0  0  0  0  0  0  0  0  0  0
  125.0552  121.3392   89.5102 O   0  0  0  0  0  0  0  0  0  0  0  0
  124.4069  122.0736   90.5411 C   0  0  0  0  0  0  0  0  0  0  0  0
  125.5616  121.4660   87.2119 C   0  0  0  0  0  0  0  0  0  0  0  0
  126.8626  121.3164   87.6221 O   0  0  0  0  0  0  0  0  0  0  0  0
  127.8680  121.2295   86.6225 C   0  0  0  0  0  0  0  0  0  0  0  0
  125.1644  121.6035   85.8794 C   0  0  0  0  0  0  0  0  0  0  0  0
  123.8080  121.7704   85.5454 C   0  0  0  0  0  0  0  0  0  0  0  0
  123.4179  121.9183   83.8066 S   0  0  0  0  0  6  0  0  0  0  0  0
  122.2220  121.1512   83.5536 O   0  0  0  0  0  0  0  0  0  0  0  0
  124.6361  121.7034   83.0522 O   0  0  0  0  0  0  0  0  0  0  0  0
  123.1032  123.5830   83.6672 N   0  0  0  0  0  0  0  0  0  0  0  0
  123.7335  124.3642   82.5492 C   0  0  0  0  0  0  0  0  0  0  0  0
  124.1656  125.7125   83.1572 C   0  0  0  0  0  0  0  0  0  0  0  0
  122.7045  124.6449   81.4483 C   0  0  0  0  0  0  0  0  0  0  0  0
  124.9701  123.6634   81.9789 C   0  0  0  0  0  0  0  0  0  0  0  0
  115.8887  123.7484   84.7299 H   0  0  0  0  0  0  0  0  0  0  0  0
  117.0956  124.6955   83.7954 H   0  0  0  0  0  0  0  0  0  0  0  0
  117.1673  122.9006   83.7954 H   0  0  0  0  0  0  0  0  0  0  0  0
  119.8996  125.0259   86.2981 H   0  0  0  0  0  0  0  0  0  0  0  0
  121.6361  123.8614   87.3360 H   0  0  0  0  0  0  0  0  0  0  0  0
  120.2152  122.8769   87.9035 H   0  0  0  0  0  0  0  0  0  0  0  0
  120.8097  121.0971   86.6818 H   0  0  0  0  0  0  0  0  0  0  0  0
  121.1874  122.1273   85.2338 H   0  0  0  0  0  0  0  0  0  0  0  0
  122.4873  121.6546   88.6896 H   0  0  0  0  0  0  0  0  0  0  0  0
  124.7373  121.6994   91.5213 H   0  0  0  0  0  0  0  0  0  0  0  0
  124.6643  123.1392   90.4497 H   0  0  0  0  0  0  0  0  0  0  0  0
  123.3176  121.9504   90.4497 H   0  0  0  0  0  0  0  0  0  0  0  0
  128.8547  121.1442   87.1013 H   0  0  0  0  0  0  0  0  0  0  0  0
  127.6867  120.3437   85.9960 H   0  0  0  0  0  0  0  0  0  0  0  0
  127.8413  122.1333   85.9960 H   0  0  0  0  0  0  0  0  0  0  0  0
  125.9215  121.5809   85.0817 H   0  0  0  0  0  0  0  0  0  0  0  0
  122.0833  123.6878   83.5681 H   0  0  0  0  0  0  0  0  0  0  0  0
  124.1435  125.6436   84.2548 H   0  0  0  0  0  0  0  0  0  0  0  0
  125.1862  125.9540   82.8254 H   0  0  0  0  0  0  0  0  0  0  0  0
  123.4756  126.5023   82.8254 H   0  0  0  0  0  0  0  0  0  0  0  0
  121.7398  124.9081   81.9066 H   0  0  0  0  0  0  0  0  0  0  0  0
  123.0540  125.4805   80.8242 H   0  0  0  0  0  0  0  0  0  0  0  0
  122.5813  123.7475   80.8242 H   0  0  0  0  0  0  0  0  0  0  0  0
  125.6022  123.3053   82.8048 H   0  0  0  0  0  0  0  0  0  0  0  0
  124.6554  122.8094   81.3611 H   0  0  0  0  0  0  0  0  0  0  0  0
  125.5410  124.3723   81.3611 H   0  0  0  0  0  0  0  0  0  0  0  0
  1  2  1  0
  2  3  1  0
  3  4  2  0
  3  5  1  0
  5  6  1  0
  6  7  1  0
  7  8  1  0
  8  9  2  0
  9 10  1  0
 10 11  1  0
 11 12  1  0
 10 13  2  0
 13 14  1  0
 14 15  1  0
 13 16  1  0
 16 17  2  0
 17 18  1  0
 18 19  2  0
 18 20  2  0
 18 21  1  0
 21 22  1  0
 22 23  1  0
 22 24  1  0
 22 25  1  0
 17  8  1  0
  1 26  1  0
  1 27  1  0
  1 28  1  0
  5 29  1  0
  6 30  1  0
  6 31  1  0
  7 32  1  0
  7 33  1  0
  9 34  1  0
 12 35  1  0
 12 36  1  0
 12 37  1  0
 15 38  1  0
 15 39  1  0
 15 40  1  0
 16 41  1  0
 21 42  1  0
 23 43  1  0
 23 44  1  0
 23 45  1  0
 24 46  1  0
 24 47  1  0
 24 48  1  0
 25 49  1  0
 25 50  1  0
 25 51  1  0
M  END
>  <loss>  (1) 
0.33341825008392334

>  <score>  (1) 
4.9891767501831055

$$$$
SOJQYLKYPWFEBD-UHFFFAOYSA-N
     RDKit          3D

 51 51  0  0  0  0  0  0  0  0999 V2000
  117.0152  123.6160   84.0939 C   0  0  0  0  0  0  0  0  0  0  0  0
  117.9454  124.1406   85.0414 O   0  0  0  0  0  0  0  0  0  0  0  0
  118.9247  123.2707   85.3895 C   0  0  0  0  0  0  0  0  0  0  0  0
  118.9609  122.0846   85.0959 O   0  0  0  0  0  0  0  0  0  0  0  0
  119.8710  123.9300   86.1150 N   0  0  0  0  0  0  0  0  0  0  0  0
  120.8230  123.2457   86.9613 C   0  0  0  0  0  0  0  0  0  0  0  0
  121.3576  121.9574   86.3222 C   0  0  0  0  0  0  0  0  0  0  0  0
  122.8511  121.8034   86.5098 C   0  0  0  0  0  0  0  0  0  0  0  0
  123.3146  121.6480   87.8336 C   0  0  0  0  0  0  0  0  0  0  0  0
  124.6771  121.5180   88.1273 C   0  0  0  0  0  0  0  0  0  0  0  0
  125.1849  121.3657   89.3926 O   0  0  0  0  0  0  0  0  0  0  0  0
  124.3692  121.7633   90.4877 C   0  0  0  0  0  0  0  0  0  0  0  0
  125.6147  121.5276   87.0810 C   0  0  0  0  0  0  0  0  0  0  0  0
  126.9312  121.4047   87.4482 O   0  0  0  0  0  0  0  0  0  0  0  0
  127.8913  121.2052   86.4206 C   0  0  0  0  0  0  0  0  0  0  0  0
  125.1722  121.6692   85.7633 C   0  0  0  0  0  0  0  0  0  0  0  0
  123.8024  121.8074   85.4741 C   0  0  0  0  0  0  0  0  0  0  0  0
  123.3538  121.9636   83.7502 S   0  0  0  0  0  6  0  0  0  0  0  0
  121.9218  122.1274   83.6776 O   0  0  0  0  0  0  0  0  0  0  0  0
  124.0414  120.9248   83.0104 O   0  0  0  0  0  0  0  0  0  0  0  0
  124.1449  123.4056   83.3204 N   0  0  0  0  0  0  0  0  0  0  0  0
  123.4059  124.4475   82.5293 C   0  0  0  0  0  0  0  0  0  0  0  0
  124.3866  124.9425   81.4488 C   0  0  0  0  0  0  0  0  0  0  0  0
  123.0410  125.6374   83.4239 C   0  0  0  0  0  0  0  0  0  0  0  0
  122.1626  123.8772   81.8403 C   0  0  0  0  0  0  0  0  0  0  0  0
  116.1767  123.1433   84.6263 H   0  0  0  0  0  0  0  0  0  0  0  0
  116.6349  124.4327   83.4626 H   0  0  0  0  0  0  0  0  0  0  0  0
  117.5172  122.8680   83.4626 H   0  0  0  0  0  0  0  0  0  0  0  0
  119.9097  124.9577   86.0583 H   0  0  0  0  0  0  0  0  0  0  0  0
  121.6697  123.9202   87.1568 H   0  0  0  0  0  0  0  0  0  0  0  0
  120.3045  122.9675   87.8906 H   0  0  0  0  0  0  0  0  0  0  0  0
  120.8520  121.0966   86.7841 H   0  0  0  0  0  0  0  0  0  0  0  0
  121.1564  122.0077   85.2419 H   0  0  0  0  0  0  0  0  0  0  0  0
  122.5854  121.6285   88.6569 H   0  0  0  0  0  0  0  0  0  0  0  0
  124.8767  121.5159   91.4317 H   0  0  0  0  0  0  0  0  0  0  0  0
  124.1935  122.8481   90.4391 H   0  0  0  0  0  0  0  0  0  0  0  0
  123.4064  121.2335   90.4391 H   0  0  0  0  0  0  0  0  0  0  0  0
  128.8737  121.0010   86.8712 H   0  0  0  0  0  0  0  0  0  0  0  0
  127.5890  120.3506   85.7973 H   0  0  0  0  0  0  0  0  0  0  0  0
  127.9546  122.1093   85.7973 H   0  0  0  0  0  0  0  0  0  0  0  0
  125.9039  121.6726   84.9419 H   0  0  0  0  0  0  0  0  0  0  0  0
  124.4476  123.8539   84.1969 H   0  0  0  0  0  0  0  0  0  0  0  0
  125.2692  125.3880   81.9310 H   0  0  0  0  0  0  0  0  0  0  0  0
  124.7000  124.0946   80.8219 H   0  0  0  0  0  0  0  0  0  0  0  0
  123.8906  125.6982   80.8219 H   0  0  0  0  0  0  0  0  0  0  0  0
  123.1312  125.3433   84.4800 H   0  0  0  0  0  0  0  0  0  0  0  0
  123.7237  126.4747   83.2169 H   0  0  0  0  0  0  0  0  0  0  0  0
  122.0063  125.9481   83.2169 H   0  0  0  0  0  0  0  0  0  0  0  0
  121.4409  123.5462   82.6016 H   0  0  0  0  0  0  0  0  0  0  0  0
  121.7025  124.6543   81.2122 H   0  0  0  0  0  0  0  0  0  0  0  0
  122.4514  123.0216   81.2122 H   0  0  0  0  0  0  0  0  0  0  0  0
  1  2  1  0
  2  3  1  0
  3  4  2  0
  3  5  1  0
  5  6  1  0
  6  7  1  0
  7  8  1  0
  8  9  2  0
  9 10  1  0
 10 11  1  0
 11 12  1  0
 10 13  2  0
 13 14  1  0
 14 15  1  0
 13 16  1  0
 16 17  2  0
 17 18  1  0
 18 19  2  0
 18 20  2  0
 18 21  1  0
 21 22  1  0
 22 23  1  0
 22 24  1  0
 22 25  1  0
 17  8  1  0
  1 26  1  0
  1 27  1  0
  1 28  1  0
  5 29  1  0
  6 30  1  0
  6 31  1  0
  7 32  1  0
  7 33  1  0
  9 34  1  0
 12 35  1  0
 12 36  1  0
 12 37  1  0
 15 38  1  0
 15 39  1  0
 15 40  1  0
 16 41  1  0
 21 42  1  0
 23 43  1  0
 23 44  1  0
 23 45  1  0
 24 46  1  0
 24 47  1  0
 24 48  1  0
 25 49  1  0
 25 50  1  0
 25 51  1  0
M  END
>  <loss>  (2) 
0.32207781076431274

>  <score>  (2) 
4.813249588012695

$$$$
SOJQYLKYPWFEBD-UHFFFAOYSA-N
     RDKit          3D

 51 51  0  0  0  0  0  0  0  0999 V2000
  117.0679  123.6408   83.6710 C   0  0  0  0  0  0  0  0  0  0  0  0
  117.9111  124.1940   84.6816 O   0  0  0  0  0  0  0  0  0  0  0  0
  118.9056  123.3649   85.0821 C   0  0  0  0  0  0  0  0  0  0  0  0
  119.0617  122.2100   84.7129 O   0  0  0  0  0  0  0  0  0  0  0  0
  119.7123  124.0256   85.9591 N   0  0  0  0  0  0  0  0  0  0  0  0
  120.6891  123.3490   86.7831 C   0  0  0  0  0  0  0  0  0  0  0  0
  121.2877  122.1165   86.0928 C   0  0  0  0  0  0  0  0  0  0  0  0
  122.7429  121.9102   86.4524 C   0  0  0  0  0  0  0  0  0  0  0  0
  123.0456  121.7586   87.8223 C   0  0  0  0  0  0  0  0  0  0  0  0
  124.3595  121.5829   88.2721 C   0  0  0  0  0  0  0  0  0  0  0  0
  124.7130  121.4318   89.5890 O   0  0  0  0  0  0  0  0  0  0  0  0
  123.7038  121.6206   90.5732 C   0  0  0  0  0  0  0  0  0  0  0  0
  125.4103  121.5414   87.3404 C   0  0  0  0  0  0  0  0  0  0  0  0
  126.6705  121.3756   87.8578 O   0  0  0  0  0  0  0  0  0  0  0  0
  127.7689  121.4227   86.9585 C   0  0  0  0  0  0  0  0  0  0  0  0
  125.1272  121.6785   85.9790 C   0  0  0  0  0  0  0  0  0  0  0  0
  123.8058  121.8628   85.5329 C   0  0  0  0  0  0  0  0  0  0  0  0
  123.5637  122.0084   83.7672 S   0  0  0  0  0  6  0  0  0  0  0  0
  122.1933  121.6611   83.4773 O   0  0  0  0  0  0  0  0  0  0  0  0
  124.6733  121.3529   83.1052 O   0  0  0  0  0  0  0  0  0  0  0  0
  123.8259  123.6701   83.5221 N   0  0  0  0  0  0  0  0  0  0  0  0
  123.6476  124.2526   82.1486 C   0  0  0  0  0  0  0  0  0  0  0  0
  124.5608  125.4921   82.0855 C   0  0  0  0  0  0  0  0  0  0  0  0
  122.2000  124.7156   81.9493 C   0  0  0  0  0  0  0  0  0  0  0  0
  124.0681  123.2758   81.0465 C   0  0  0  0  0  0  0  0  0  0  0  0
  116.2376  123.0960   84.1441 H   0  0  0  0  0  0  0  0  0  0  0  0
  116.6655  124.4510   83.0452 H   0  0  0  0  0  0  0  0  0  0  0  0
  117.6509  122.9491   83.0452 H   0  0  0  0  0  0  0  0  0  0  0  0
  119.6227  125.0486   86.0383 H   0  0  0  0  0  0  0  0  0  0  0  0
  121.5020  124.0525   87.0160 H   0  0  0  0  0  0  0  0  0  0  0  0
  120.1774  123.0060   87.6944 H   0  0  0  0  0  0  0  0  0  0  0  0
  120.7176  121.2271   86.3991 H   0  0  0  0  0  0  0  0  0  0  0  0
  121.2278  122.2758   85.0060 H   0  0  0  0  0  0  0  0  0  0  0  0
  122.2268  121.7791   88.5567 H   0  0  0  0  0  0  0  0  0  0  0  0
  124.1491  121.5373   91.5756 H   0  0  0  0  0  0  0  0  0  0  0  0
  123.2561  122.6181   90.4526 H   0  0  0  0  0  0  0  0  0  0  0  0
  122.9258  120.8524   90.4526 H   0  0  0  0  0  0  0  0  0  0  0  0
  128.7085  121.4630   87.5290 H   0  0  0  0  0  0  0  0  0  0  0  0
  127.7629  120.5235   86.3249 H   0  0  0  0  0  0  0  0  0  0  0  0
  127.6860  122.3181   86.3249 H   0  0  0  0  0  0  0  0  0  0  0  0
  125.9476  121.6420   85.2472 H   0  0  0  0  0  0  0  0  0  0  0  0
  123.1776  124.1709   84.1464 H   0  0  0  0  0  0  0  0  0  0  0  0
  124.8033  125.8212   83.1067 H   0  0  0  0  0  0  0  0  0  0  0  0
  125.4886  125.2372   81.5523 H   0  0  0  0  0  0  0  0  0  0  0  0
  124.0424  126.3026   81.5523 H   0  0  0  0  0  0  0  0  0  0  0  0
  121.7253  124.8674   82.9299 H   0  0  0  0  0  0  0  0  0  0  0  0
  122.1916  125.6612   81.3875 H   0  0  0  0  0  0  0  0  0  0  0  0
  121.6443  123.9503   81.3875 H   0  0  0  0  0  0  0  0  0  0  0  0
  124.4639  122.3564   81.5028 H   0  0  0  0  0  0  0  0  0  0  0  0
  123.1963  123.0295   80.4226 H   0  0  0  0  0  0  0  0  0  0  0  0
  124.8462  123.7398   80.4226 H   0  0  0  0  0  0  0  0  0  0  0  0
  1  2  1  0
  2  3  1  0
  3  4  2  0
  3  5  1  0
  5  6  1  0
  6  7  1  0
  7  8  1  0
  8  9  2  0
  9 10  1  0
 10 11  1  0
 11 12  1  0
 10 13  2  0
 13 14  1  0
 14 15  1  0
 13 16  1  0
 16 17  2  0
 17 18  1  0
 18 19  2  0
 18 20  2  0
 18 21  1  0
 21 22  1  0
 22 23  1  0
 22 24  1  0
 22 25  1  0
 17  8  1  0
  1 26  1  0
  1 27  1  0
  1 28  1  0
  5 29  1  0
  6 30  1  0
  6 31  1  0
  7 32  1  0
  7 33  1  0
  9 34  1  0
 12 35  1  0
 12 36  1  0
 12 37  1  0
 15 38  1  0
 15 39  1  0
 15 40  1  0
 16 41  1  0
 21 42  1  0
 23 43  1  0
 23 44  1  0
 23 45  1  0
 24 46  1  0
 24 47  1  0
 24 48  1  0
 25 49  1  0
 25 50  1  0
 25 51  1  0
M  END
>  <loss>  (3) 
0.3451724648475647

>  <score>  (3) 
4.831426620483398

$$$$
SOJQYLKYPWFEBD-UHFFFAOYSA-N
     RDKit          3D

 51 51  0  0  0  0  0  0  0  0999 V2000
  116.5183  123.6477   83.8310 C   0  0  0  0  0  0  0  0  0  0  0  0
  117.3447  123.3229   84.9480 O   0  0  0  0  0  0  0  0  0  0  0  0
  118.6662  123.5259   84.7333 C   0  0  0  0  0  0  0  0  0  0  0  0
  119.1632  123.9249   83.6911 O   0  0  0  0  0  0  0  0  0  0  0  0
  119.3548  123.1965   85.8595 N   0  0  0  0  0  0  0  0  0  0  0  0
  120.6778  122.6242   85.8146 C   0  0  0  0  0  0  0  0  0  0  0  0
  121.5034  122.9200   87.0696 C   0  0  0  0  0  0  0  0  0  0  0  0
  122.9071  122.3511   87.0269 C   0  0  0  0  0  0  0  0  0  0  0  0
  123.5414  122.1524   88.2757 C   0  0  0  0  0  0  0  0  0  0  0  0
  124.8317  121.6170   88.3797 C   0  0  0  0  0  0  0  0  0  0  0  0
  125.4964  121.4139   89.5630 O   0  0  0  0  0  0  0  0  0  0  0  0
  124.7866  121.6453   90.7713 C   0  0  0  0  0  0  0  0  0  0  0  0
  125.5207  121.2499   87.2143 C   0  0  0  0  0  0  0  0  0  0  0  0
  126.7818  120.7367   87.3869 O   0  0  0  0  0  0  0  0  0  0  0  0
  127.7987  121.1924   86.5058 C   0  0  0  0  0  0  0  0  0  0  0  0
  124.9122  121.4370   85.9726 C   0  0  0  0  0  0  0  0  0  0  0  0
  123.6179  121.9874   85.8692 C   0  0  0  0  0  0  0  0  0  0  0  0
  123.0059  122.1397   84.1974 S   0  0  0  0  0  6  0  0  0  0  0  0
  121.7396  122.8337   84.1593 O   0  0  0  0  0  0  0  0  0  0  0  0
  123.1534  120.8354   83.5875 O   0  0  0  0  0  0  0  0  0  0  0  0
  124.1628  123.0998   83.4527 N   0  0  0  0  0  0  0  0  0  0  0  0
  123.9009  124.3799   82.7623 C   0  0  0  0  0  0  0  0  0  0  0  0
  125.1182  124.6357   81.8546 C   0  0  0  0  0  0  0  0  0  0  0  0
  122.6516  124.2454   81.8848 C   0  0  0  0  0  0  0  0  0  0  0  0
  123.7660  125.5581   83.7273 C   0  0  0  0  0  0  0  0  0  0  0  0
  115.5504  124.0281   84.1892 H   0  0  0  0  0  0  0  0  0  0  0  0
  117.0123  124.4185   83.2213 H   0  0  0  0  0  0  0  0  0  0  0  0
  116.3553  122.7467   83.2213 H   0  0  0  0  0  0  0  0  0  0  0  0
  118.9157  123.3617   86.7765 H   0  0  0  0  0  0  0  0  0  0  0  0
  120.5839  121.5335   85.7065 H   0  0  0  0  0  0  0  0  0  0  0  0
  121.2031  123.0791   84.9619 H   0  0  0  0  0  0  0  0  0  0  0  0
  121.5750  124.0112   87.1882 H   0  0  0  0  0  0  0  0  0  0  0  0
  120.9879  122.4375   87.9130 H   0  0  0  0  0  0  0  0  0  0  0  0
  123.0039  122.4274   89.1952 H   0  0  0  0  0  0  0  0  0  0  0  0
  125.4421  121.4316   91.6283 H   0  0  0  0  0  0  0  0  0  0  0  0
  124.4623  122.6957   90.8106 H   0  0  0  0  0  0  0  0  0  0  0  0
  123.9056  120.9879   90.8106 H   0  0  0  0  0  0  0  0  0  0  0  0
  128.6482  121.5730   87.0919 H   0  0  0  0  0  0  0  0  0  0  0  0
  128.1350  120.3589   85.8716 H   0  0  0  0  0  0  0  0  0  0  0  0
  127.4005  121.9981   85.8716 H   0  0  0  0  0  0  0  0  0  0  0  0
  125.4518  121.1501   85.0580 H   0  0  0  0  0  0  0  0  0  0  0  0
  124.8468  123.3229   84.1898 H   0  0  0  0  0  0  0  0  0  0  0  0
  126.0063  124.8223   82.4763 H   0  0  0  0  0  0  0  0  0  0  0  0
  125.2936  123.7548   81.2196 H   0  0  0  0  0  0  0  0  0  0  0  0
  124.9242  125.5127   81.2196 H   0  0  0  0  0  0  0  0  0  0  0  0
  121.7624  124.1496   82.5252 H   0  0  0  0  0  0  0  0  0  0  0  0
  122.5517  125.1380   81.2498 H   0  0  0  0  0  0  0  0  0  0  0  0
  122.7440  123.3520   81.2498 H   0  0  0  0  0  0  0  0  0  0  0  0
  123.8081  125.1903   84.7631 H   0  0  0  0  0  0  0  0  0  0  0  0
  124.5888  126.2680   83.5565 H   0  0  0  0  0  0  0  0  0  0  0  0
  122.8042  126.0637   83.5565 H   0  0  0  0  0  0  0  0  0  0  0  0
  1  2  1  0
  2  3  1  0
  3  4  2  0
  3  5  1  0
  5  6  1  0
  6  7  1  0
  7  8  1  0
  8  9  2  0
  9 10  1  0
 10 11  1  0
 11 12  1  0
 10 13  2  0
 13 14  1  0
 14 15  1  0
 13 16  1  0
 16 17  2  0
 17 18  1  0
 18 19  2  0
 18 20  2  0
 18 21  1  0
 21 22  1  0
 22 23  1  0
 22 24  1  0
 22 25  1  0
 17  8  1  0
  1 26  1  0
  1 27  1  0
  1 28  1  0
  5 29  1  0
  6 30  1  0
  6 31  1  0
  7 32  1  0
  7 33  1  0
  9 34  1  0
 12 35  1  0
 12 36  1  0
 12 37  1  0
 15 38  1  0
 15 39  1  0
 15 40  1  0
 16 41  1  0
 21 42  1  0
 23 43  1  0
 23 44  1  0
 23 45  1  0
 24 46  1  0
 24 47  1  0
 24 48  1  0
 25 49  1  0
 25 50  1  0
 25 51  1  0
M  END
>  <loss>  (4) 
0.3818015158176422

>  <score>  (4) 
4.9379963874816895

$$$$
SOJQYLKYPWFEBD-UHFFFAOYSA-N
     RDKit          3D

 51 51  0  0  0  0  0  0  0  0999 V2000
  117.1194  123.6727   83.4973 C   0  0  0  0  0  0  0  0  0  0  0  0
  117.4854  123.3979   84.8489 O   0  0  0  0  0  0  0  0  0  0  0  0
  118.7991  123.5916   85.1143 C   0  0  0  0  0  0  0  0  0  0  0  0
  119.5118  124.4358   84.5930 O   0  0  0  0  0  0  0  0  0  0  0  0
  119.2034  122.6825   86.0422 N   0  0  0  0  0  0  0  0  0  0  0  0
  120.5281  122.1121   86.0367 C   0  0  0  0  0  0  0  0  0  0  0  0
  121.5220  122.8926   86.9009 C   0  0  0  0  0  0  0  0  0  0  0  0
  122.9298  122.3331   86.8712 C   0  0  0  0  0  0  0  0  0  0  0  0
  123.5412  122.1068   88.1267 C   0  0  0  0  0  0  0  0  0  0  0  0
  124.8326  121.5764   88.2423 C   0  0  0  0  0  0  0  0  0  0  0  0
  125.4757  121.3475   89.4328 O   0  0  0  0  0  0  0  0  0  0  0  0
  125.2439  122.2578   90.4982 C   0  0  0  0  0  0  0  0  0  0  0  0
  125.5463  121.2428   87.0817 C   0  0  0  0  0  0  0  0  0  0  0  0
  126.8070  120.7328   87.2658 O   0  0  0  0  0  0  0  0  0  0  0  0
  127.7072  120.8045   86.1692 C   0  0  0  0  0  0  0  0  0  0  0  0
  124.9606  121.4576   85.8335 C   0  0  0  0  0  0  0  0  0  0  0  0
  123.6651  122.0028   85.7188 C   0  0  0  0  0  0  0  0  0  0  0  0
  123.0844  122.1936   84.0398 S   0  0  0  0  0  6  0  0  0  0  0  0
  121.6999  122.6036   84.0027 O   0  0  0  0  0  0  0  0  0  0  0  0
  123.5281  121.0202   83.3179 O   0  0  0  0  0  0  0  0  0  0  0  0
  124.0282  123.4485   83.4491 N   0  0  0  0  0  0  0  0  0  0  0  0
  123.5715  124.5013   82.5178 C   0  0  0  0  0  0  0  0  0  0  0  0
  124.8370  125.0439   81.8284 C   0  0  0  0  0  0  0  0  0  0  0  0
  122.6562  123.8857   81.4539 C   0  0  0  0  0  0  0  0  0  0  0  0
  122.8774  125.6629   83.2294 C   0  0  0  0  0  0  0  0  0  0  0  0
  116.2399  124.3332   83.4827 H   0  0  0  0  0  0  0  0  0  0  0  0
  117.9574  124.1666   82.9837 H   0  0  0  0  0  0  0  0  0  0  0  0
  116.8788  122.7302   82.9837 H   0  0  0  0  0  0  0  0  0  0  0  0
  118.5402  122.3914   86.7745 H   0  0  0  0  0  0  0  0  0  0  0  0
  120.4671  121.0818   86.4172 H   0  0  0  0  0  0  0  0  0  0  0  0
  120.8960  122.1476   85.0006 H   0  0  0  0  0  0  0  0  0  0  0  0
  121.5540  123.9313   86.5403 H   0  0  0  0  0  0  0  0  0  0  0  0
  121.1698  122.8183   87.9403 H   0  0  0  0  0  0  0  0  0  0  0  0
  122.9843  122.3555   89.0422 H   0  0  0  0  0  0  0  0  0  0  0  0
  125.3760  121.7390   91.4591 H   0  0  0  0  0  0  0  0  0  0  0  0
  125.9584  123.0914   90.4303 H   0  0  0  0  0  0  0  0  0  0  0  0
  124.2177  122.6481   90.4303 H   0  0  0  0  0  0  0  0  0  0  0  0
  128.7376  120.8866   86.5455 H   0  0  0  0  0  0  0  0  0  0  0  0
  127.6120  119.8959   85.5565 H   0  0  0  0  0  0  0  0  0  0  0  0
  127.4693  121.6866   85.5565 H   0  0  0  0  0  0  0  0  0  0  0  0
  125.5195  121.1969   84.9226 H   0  0  0  0  0  0  0  0  0  0  0  0
  124.3665  123.9504   84.2826 H   0  0  0  0  0  0  0  0  0  0  0  0
  125.5650  125.3561   82.5916 H   0  0  0  0  0  0  0  0  0  0  0  0
  125.2788  124.2561   81.2006 H   0  0  0  0  0  0  0  0  0  0  0  0
  124.5710  125.9071   81.2006 H   0  0  0  0  0  0  0  0  0  0  0  0
  121.8398  123.3367   81.9458 H   0  0  0  0  0  0  0  0  0  0  0  0
  122.2347  124.6846   80.8261 H   0  0  0  0  0  0  0  0  0  0  0  0
  123.2372  123.1941   80.8261 H   0  0  0  0  0  0  0  0  0  0  0  0
  122.9585  125.5272   84.3180 H   0  0  0  0  0  0  0  0  0  0  0  0
  123.3581  126.6094   82.9411 H   0  0  0  0  0  0  0  0  0  0  0  0
  121.8161  125.6880   82.9411 H   0  0  0  0  0  0  0  0  0  0  0  0
  1  2  1  0
  2  3  1  0
  3  4  2  0
  3  5  1  0
  5  6  1  0
  6  7  1  0
  7  8  1  0
  8  9  2  0
  9 10  1  0
 10 11  1  0
 11 12  1  0
 10 13  2  0
 13 14  1  0
 14 15  1  0
 13 16  1  0
 16 17  2  0
 17 18  1  0
 18 19  2  0
 18 20  2  0
 18 21  1  0
 21 22  1  0
 22 23  1  0
 22 24  1  0
 22 25  1  0
 17  8  1  0
  1 26  1  0
  1 27  1  0
  1 28  1  0
  5 29  1  0
  6 30  1  0
  6 31  1  0
  7 32  1  0
  7 33  1  0
  9 34  1  0
 12 35  1  0
 12 36  1  0
 12 37  1  0
 15 38  1  0
 15 39  1  0
 15 40  1  0
 16 41  1  0
 21 42  1  0
 23 43  1  0
 23 44  1  0
 23 45  1  0
 24 46  1  0
 24 47  1  0
 24 48  1  0
 25 49  1  0
 25 50  1  0
 25 51  1  0
M  END
>  <loss>  (5) 
0.33382102847099304

>  <score>  (5) 
4.679811954498291

$$$$
SOJQYLKYPWFEBD-UHFFFAOYSA-N
     RDKit          3D

 51 51  0  0  0  0  0  0  0  0999 V2000
  117.1193  123.5050   83.8136 C   0  0  0  0  0  0  0  0  0  0  0  0
  117.5152  123.3100   85.1706 O   0  0  0  0  0  0  0  0  0  0  0  0
  118.8323  123.5284   85.3971 C   0  0  0  0  0  0  0  0  0  0  0  0
  119.5430  124.2977   84.7681 O   0  0  0  0  0  0  0  0  0  0  0  0
  119.2425  122.7396   86.4269 N   0  0  0  0  0  0  0  0  0  0  0  0
  120.5361  122.1020   86.4418 C   0  0  0  0  0  0  0  0  0  0  0  0
  121.6977  123.0989   86.4114 C   0  0  0  0  0  0  0  0  0  0  0  0
  123.0621  122.4529   86.5418 C   0  0  0  0  0  0  0  0  0  0  0  0
  123.5747  122.3297   87.8545 C   0  0  0  0  0  0  0  0  0  0  0  0
  124.8160  121.7359   88.1176 C   0  0  0  0  0  0  0  0  0  0  0  0
  125.3641  121.6010   89.3684 O   0  0  0  0  0  0  0  0  0  0  0  0
  124.5131  121.7891   90.4898 C   0  0  0  0  0  0  0  0  0  0  0  0
  125.5774  121.2317   87.0528 C   0  0  0  0  0  0  0  0  0  0  0  0
  126.7851  120.6677   87.3794 O   0  0  0  0  0  0  0  0  0  0  0  0
  127.9218  121.0808   86.6343 C   0  0  0  0  0  0  0  0  0  0  0  0
  125.0891  121.3427   85.7503 C   0  0  0  0  0  0  0  0  0  0  0  0
  123.8447  121.9515   85.4863 C   0  0  0  0  0  0  0  0  0  0  0  0
  123.3873  121.9906   83.7595 S   0  0  0  0  0  6  0  0  0  0  0  0
  121.9576  122.1137   83.5941 O   0  0  0  0  0  0  0  0  0  0  0  0
  124.1164  120.9168   83.1190 O   0  0  0  0  0  0  0  0  0  0  0  0
  124.1116  123.3981   83.2039 N   0  0  0  0  0  0  0  0  0  0  0  0
  123.4575  124.4293   82.3714 C   0  0  0  0  0  0  0  0  0  0  0  0
  124.4720  124.8042   81.2755 C   0  0  0  0  0  0  0  0  0  0  0  0
  122.2095  123.8386   81.7064 C   0  0  0  0  0  0  0  0  0  0  0  0
  123.1106  125.6942   83.1571 C   0  0  0  0  0  0  0  0  0  0  0  0
  116.1329  123.9909   83.7857 H   0  0  0  0  0  0  0  0  0  0  0  0
  117.8568  124.1430   83.3045 H   0  0  0  0  0  0  0  0  0  0  0  0
  117.0632  122.5315   83.3045 H   0  0  0  0  0  0  0  0  0  0  0  0
  118.6069  122.5925   87.2239 H   0  0  0  0  0  0  0  0  0  0  0  0
  120.6177  121.4972   87.3570 H   0  0  0  0  0  0  0  0  0  0  0  0
  120.6087  121.4862   85.5332 H   0  0  0  0  0  0  0  0  0  0  0  0
  121.6619  123.6440   85.4567 H   0  0  0  0  0  0  0  0  0  0  0  0
  121.5732  123.7621   87.2801 H   0  0  0  0  0  0  0  0  0  0  0  0
  122.9792  122.7127   88.6963 H   0  0  0  0  0  0  0  0  0  0  0  0
  125.0930  121.6609   91.4158 H   0  0  0  0  0  0  0  0  0  0  0  0
  124.0875  122.8030   90.4612 H   0  0  0  0  0  0  0  0  0  0  0  0
  123.6998  121.0491   90.4612 H   0  0  0  0  0  0  0  0  0  0  0  0
  128.7265  121.3732   87.3249 H   0  0  0  0  0  0  0  0  0  0  0  0
  128.2664  120.2504   86.0004 H   0  0  0  0  0  0  0  0  0  0  0  0
  127.6529  121.9387   86.0004 H   0  0  0  0  0  0  0  0  0  0  0  0
  125.6855  120.9482   84.9145 H   0  0  0  0  0  0  0  0  0  0  0  0
  124.4301  123.8925   84.0494 H   0  0  0  0  0  0  0  0  0  0  0  0
  125.4060  125.1494   81.7429 H   0  0  0  0  0  0  0  0  0  0  0  0
  124.6787  123.9231   80.6502 H   0  0  0  0  0  0  0  0  0  0  0  0
  124.0560  125.6080   80.6502 H   0  0  0  0  0  0  0  0  0  0  0  0
  121.5041  123.5048   82.4817 H   0  0  0  0  0  0  0  0  0  0  0  0
  121.7300  124.6054   81.0801 H   0  0  0  0  0  0  0  0  0  0  0  0
  122.4985  122.9818   81.0801 H   0  0  0  0  0  0  0  0  0  0  0  0
  123.1684  125.4836   84.2352 H   0  0  0  0  0  0  0  0  0  0  0  0
  123.8232  126.4920   82.9007 H   0  0  0  0  0  0  0  0  0  0  0  0
  122.0908  126.0170   82.9007 H   0  0  0  0  0  0  0  0  0  0  0  0
  1  2  1  0
  2  3  1  0
  3  4  2  0
  3  5  1  0
  5  6  1  0
  6  7  1  0
  7  8  1  0
  8  9  2  0
  9 10  1  0
 10 11  1  0
 11 12  1  0
 10 13  2  0
 13 14  1  0
 14 15  1  0
 13 16  1  0
 16 17  2  0
 17 18  1  0
 18 19  2  0
 18 20  2  0
 18 21  1  0
 21 22  1  0
 22 23  1  0
 22 24  1  0
 22 25  1  0
 17  8  1  0
  1 26  1  0
  1 27  1  0
  1 28  1  0
  5 29  1  0
  6 30  1  0
  6 31  1  0
  7 32  1  0
  7 33  1  0
  9 34  1  0
 12 35  1  0
 12 36  1  0
 12 37  1  0
 15 38  1  0
 15 39  1  0
 15 40  1  0
 16 41  1  0
 21 42  1  0
 23 43  1  0
 23 44  1  0
 23 45  1  0
 24 46  1  0
 24 47  1  0
 24 48  1  0
 25 49  1  0
 25 50  1  0
 25 51  1  0
M  END
>  <loss>  (6) 
0.3202962577342987

>  <score>  (6) 
4.5397820472717285

$$$$
SOJQYLKYPWFEBD-UHFFFAOYSA-N
     RDKit          3D

 51 51  0  0  0  0  0  0  0  0999 V2000
  116.9043  123.6279   83.8996 C   0  0  0  0  0  0  0  0  0  0  0  0
  117.5351  123.6516   85.1802 O   0  0  0  0  0  0  0  0  0  0  0  0
  118.8582  123.3638   85.1456 C   0  0  0  0  0  0  0  0  0  0  0  0
  119.5728  123.4264   84.1573 O   0  0  0  0  0  0  0  0  0  0  0  0
  119.2707  123.0197   86.3945 N   0  0  0  0  0  0  0  0  0  0  0  0
  120.5463  122.3882   86.6609 C   0  0  0  0  0  0  0  0  0  0  0  0
  121.7518  123.2457   86.2448 C   0  0  0  0  0  0  0  0  0  0  0  0
  123.0860  122.5660   86.4825 C   0  0  0  0  0  0  0  0  0  0  0  0
  123.5532  122.5075   87.8126 C   0  0  0  0  0  0  0  0  0  0  0  0
  124.7519  121.8666   88.1472 C   0  0  0  0  0  0  0  0  0  0  0  0
  125.2519  121.7745   89.4219 O   0  0  0  0  0  0  0  0  0  0  0  0
  124.3248  121.6368   90.4894 C   0  0  0  0  0  0  0  0  0  0  0  0
  125.5191  121.2638   87.1359 C   0  0  0  0  0  0  0  0  0  0  0  0
  126.6791  120.6520   87.5405 O   0  0  0  0  0  0  0  0  0  0  0  0
  127.8886  121.0312   86.8982 C   0  0  0  0  0  0  0  0  0  0  0  0
  125.0772  121.3212   85.8122 C   0  0  0  0  0  0  0  0  0  0  0  0
  123.8793  121.9789   85.4793 C   0  0  0  0  0  0  0  0  0  0  0  0
  123.4253  122.0039   83.7525 S   0  0  0  0  0  6  0  0  0  0  0  0
  124.5464  121.5348   82.9696 O   0  0  0  0  0  0  0  0  0  0  0  0
  122.1338  121.3621   83.6353 O   0  0  0  0  0  0  0  0  0  0  0  0
  123.1712  123.6169   83.4137 N   0  0  0  0  0  0  0  0  0  0  0  0
  123.8154  124.4418   82.3739 C   0  0  0  0  0  0  0  0  0  0  0  0
  124.3592  123.6298   81.1983 C   0  0  0  0  0  0  0  0  0  0  0  0
  122.7277  125.3935   81.8406 C   0  0  0  0  0  0  0  0  0  0  0  0
  124.9299  125.2806   83.0077 C   0  0  0  0  0  0  0  0  0  0  0  0
  115.8127  123.5868   84.0293 H   0  0  0  0  0  0  0  0  0  0  0  0
  117.1733  124.5368   83.3415 H   0  0  0  0  0  0  0  0  0  0  0  0
  117.2408  122.7417   83.3415 H   0  0  0  0  0  0  0  0  0  0  0  0
  118.6461  123.2177   87.1892 H   0  0  0  0  0  0  0  0  0  0  0  0
  120.6172  122.1877   87.7401 H   0  0  0  0  0  0  0  0  0  0  0  0
  120.5827  121.4658   86.0627 H   0  0  0  0  0  0  0  0  0  0  0  0
  121.6633  123.4744   85.1725 H   0  0  0  0  0  0  0  0  0  0  0  0
  121.7346  124.1529   86.8666 H   0  0  0  0  0  0  0  0  0  0  0  0
  122.9588  122.9789   88.6092 H   0  0  0  0  0  0  0  0  0  0  0  0
  124.8563  121.7158   91.4492 H   0  0  0  0  0  0  0  0  0  0  0  0
  123.5681  122.4324   90.4228 H   0  0  0  0  0  0  0  0  0  0  0  0
  123.8320  120.6556   90.4228 H   0  0  0  0  0  0  0  0  0  0  0  0
  128.6480  121.2693   87.6575 H   0  0  0  0  0  0  0  0  0  0  0  0
  128.2457  120.2019   86.2699 H   0  0  0  0  0  0  0  0  0  0  0  0
  127.7083  121.9160   86.2699 H   0  0  0  0  0  0  0  0  0  0  0  0
  125.6738  120.8458   85.0197 H   0  0  0  0  0  0  0  0  0  0  0  0
  122.1634  123.6847   83.2120 H   0  0  0  0  0  0  0  0  0  0  0  0
  124.9333  122.7724   81.5793 H   0  0  0  0  0  0  0  0  0  0  0  0
  123.5214  123.2667   80.5849 H   0  0  0  0  0  0  0  0  0  0  0  0
  125.0140  124.2662   80.5849 H   0  0  0  0  0  0  0  0  0  0  0  0
  122.1986  125.8564   82.6866 H   0  0  0  0  0  0  0  0  0  0  0  0
  123.1953  126.1778   81.2272 H   0  0  0  0  0  0  0  0  0  0  0  0
  122.0125  124.8259   81.2272 H   0  0  0  0  0  0  0  0  0  0  0  0
  124.8538  125.2233   84.1035 H   0  0  0  0  0  0  0  0  0  0  0  0
  125.9081  124.8927   82.6873 H   0  0  0  0  0  0  0  0  0  0  0  0
  124.8279  126.3279   82.6873 H   0  0  0  0  0  0  0  0  0  0  0  0
  1  2  1  0
  2  3  1  0
  3  4  2  0
  3  5  1  0
  5  6  1  0
  6  7  1  0
  7  8  1  0
  8  9  2  0
  9 10  1  0
 10 11  1  0
 11 12  1  0
 10 13  2  0
 13 14  1  0
 14 15  1  0
 13 16  1  0
 16 17  2  0
 17 18  1  0
 18 19  2  0
 18 20  2  0
 18 21  1  0
 21 22  1  0
 22 23  1  0
 22 24  1  0
 22 25  1  0
 17  8  1  0
  1 26  1  0
  1 27  1  0
  1 28  1  0
  5 29  1  0
  6 30  1  0
  6 31  1  0
  7 32  1  0
  7 33  1  0
  9 34  1  0
 12 35  1  0
 12 36  1  0
 12 37  1  0
 15 38  1  0
 15 39  1  0
 15 40  1  0
 16 41  1  0
 21 42  1  0
 23 43  1  0
 23 44  1  0
 23 45  1  0
 24 46  1  0
 24 47  1  0
 24 48  1  0
 25 49  1  0
 25 50  1  0
 25 51  1  0
M  END
>  <loss>  (7) 
0.3264097273349762

>  <score>  (7) 
4.516396522521973

$$$$
SOJQYLKYPWFEBD-UHFFFAOYSA-N
     RDKit          3D

 51 51  0  0  0  0  0  0  0  0999 V2000
  116.9012  123.6666   83.7011 C   0  0  0  0  0  0  0  0  0  0  0  0
  117.4422  123.5760   85.0193 O   0  0  0  0  0  0  0  0  0  0  0  0
  118.7770  123.3478   85.0503 C   0  0  0  0  0  0  0  0  0  0  0  0
  119.5301  123.4087   84.0909 O   0  0  0  0  0  0  0  0  0  0  0  0
  119.1500  123.0662   86.3269 N   0  0  0  0  0  0  0  0  0  0  0  0
  120.4249  122.4689   86.6657 C   0  0  0  0  0  0  0  0  0  0  0  0
  121.6151  123.1156   85.9399 C   0  0  0  0  0  0  0  0  0  0  0  0
  122.9547  122.5242   86.3330 C   0  0  0  0  0  0  0  0  0  0  0  0
  123.2433  122.4385   87.7115 C   0  0  0  0  0  0  0  0  0  0  0  0
  124.4330  121.8715   88.1834 C   0  0  0  0  0  0  0  0  0  0  0  0
  124.7641  121.7572   89.5103 O   0  0  0  0  0  0  0  0  0  0  0  0
  123.7098  121.5621   90.4423 C   0  0  0  0  0  0  0  0  0  0  0  0
  125.3730  121.3732   87.2654 C   0  0  0  0  0  0  0  0  0  0  0  0
  126.5129  120.8292   87.8023 O   0  0  0  0  0  0  0  0  0  0  0  0
  127.7533  121.1437   87.1847 C   0  0  0  0  0  0  0  0  0  0  0  0
  125.1086  121.4594   85.8966 C   0  0  0  0  0  0  0  0  0  0  0  0
  123.9181  122.0431   85.4271 C   0  0  0  0  0  0  0  0  0  0  0  0
  123.6980  122.1147   83.6565 S   0  0  0  0  0  6  0  0  0  0  0  0
  124.9672  121.8464   83.0185 O   0  0  0  0  0  0  0  0  0  0  0  0
  122.5351  121.3171   83.3324 O   0  0  0  0  0  0  0  0  0  0  0  0
  123.2698  123.6981   83.3554 N   0  0  0  0  0  0  0  0  0  0  0  0
  123.6624  124.5468   82.2142 C   0  0  0  0  0  0  0  0  0  0  0  0
  123.8382  123.7726   80.9078 C   0  0  0  0  0  0  0  0  0  0  0  0
  122.5240  125.5665   82.0211 C   0  0  0  0  0  0  0  0  0  0  0  0
  124.9454  125.3077   82.5636 C   0  0  0  0  0  0  0  0  0  0  0  0
  115.8179  123.8479   83.7610 H   0  0  0  0  0  0  0  0  0  0  0  0
  117.3828  124.4966   83.1634 H   0  0  0  0  0  0  0  0  0  0  0  0
  117.0862  122.7249   83.1634 H   0  0  0  0  0  0  0  0  0  0  0  0
  118.4943  123.2883   87.0896 H   0  0  0  0  0  0  0  0  0  0  0  0
  120.5805  122.5712   87.7498 H   0  0  0  0  0  0  0  0  0  0  0  0
  120.3845  121.4165   86.3483 H   0  0  0  0  0  0  0  0  0  0  0  0
  121.4785  122.9798   84.8569 H   0  0  0  0  0  0  0  0  0  0  0  0
  121.6323  124.1773   86.2273 H   0  0  0  0  0  0  0  0  0  0  0  0
  122.5129  122.8283   88.4358 H   0  0  0  0  0  0  0  0  0  0  0  0
  124.1067  121.6355   91.4656 H   0  0  0  0  0  0  0  0  0  0  0  0
  122.9397  122.3329   90.2915 H   0  0  0  0  0  0  0  0  0  0  0  0
  123.2667  120.5666   90.2915 H   0  0  0  0  0  0  0  0  0  0  0  0
  128.5104  121.3357   87.9593 H   0  0  0  0  0  0  0  0  0  0  0  0
  128.0756  120.2989   86.5583 H   0  0  0  0  0  0  0  0  0  0  0  0
  127.6341  122.0401   86.5583 H   0  0  0  0  0  0  0  0  0  0  0  0
  125.8409  121.0656   85.1765 H   0  0  0  0  0  0  0  0  0  0  0  0
  122.2401  123.6888   83.3304 H   0  0  0  0  0  0  0  0  0  0  0  0
  124.0765  122.7226   81.1331 H   0  0  0  0  0  0  0  0  0  0  0  0
  122.9064  123.8202   80.3252 H   0  0  0  0  0  0  0  0  0  0  0  0
  124.6581  124.2178   80.3252 H   0  0  0  0  0  0  0  0  0  0  0  0
  122.1562  125.8960   83.0040 H   0  0  0  0  0  0  0  0  0  0  0  0
  122.9007  126.4348   81.4607 H   0  0  0  0  0  0  0  0  0  0  0  0
  121.7022  125.0968   81.4607 H   0  0  0  0  0  0  0  0  0  0  0  0
  125.0490  125.3692   83.6570 H   0  0  0  0  0  0  0  0  0  0  0  0
  125.8123  124.7777   82.1423 H   0  0  0  0  0  0  0  0  0  0  0  0
  124.8959  126.3227   82.1423 H   0  0  0  0  0  0  0  0  0  0  0  0
  1  2  1  0
  2  3  1  0
  3  4  2  0
  3  5  1  0
  5  6  1  0
  6  7  1  0
  7  8  1  0
  8  9  2  0
  9 10  1  0
 10 11  1  0
 11 12  1  0
 10 13  2  0
 13 14  1  0
 14 15  1  0
 13 16  1  0
 16 17  2  0
 17 18  1  0
 18 19  2  0
 18 20  2  0
 18 21  1  0
 21 22  1  0
 22 23  1  0
 22 24  1  0
 22 25  1  0
 17  8  1  0
  1 26  1  0
  1 27  1  0
  1 28  1  0
  5 29  1  0
  6 30  1  0
  6 31  1  0
  7 32  1  0
  7 33  1  0
  9 34  1  0
 12 35  1  0
 12 36  1  0
 12 37  1  0
 15 38  1  0
 15 39  1  0
 15 40  1  0
 16 41  1  0
 21 42  1  0
 23 43  1  0
 23 44  1  0
 23 45  1  0
 24 46  1  0
 24 47  1  0
 24 48  1  0
 25 49  1  0
 25 50  1  0
 25 51  1  0
M  END
>  <loss>  (8) 
0.3725734055042267

>  <score>  (8) 
4.432615280151367

$$$$
SOJQYLKYPWFEBD-UHFFFAOYSA-N
     RDKit          3D

 51 51  0  0  0  0  0  0  0  0999 V2000
  117.0239  123.9061   83.9759 C   0  0  0  0  0  0  0  0  0  0  0  0
  117.6138  123.7225   85.2631 O   0  0  0  0  0  0  0  0  0  0  0  0
  118.9174  123.3569   85.2221 C   0  0  0  0  0  0  0  0  0  0  0  0
  119.6410  123.4162   84.2402 O   0  0  0  0  0  0  0  0  0  0  0  0
  119.3003  122.9381   86.4575 N   0  0  0  0  0  0  0  0  0  0  0  0
  120.5883  122.3325   86.7242 C   0  0  0  0  0  0  0  0  0  0  0  0
  121.7761  123.2084   86.2960 C   0  0  0  0  0  0  0  0  0  0  0  0
  123.1199  122.5272   86.4660 C   0  0  0  0  0  0  0  0  0  0  0  0
  123.6396  122.4414   87.7750 C   0  0  0  0  0  0  0  0  0  0  0  0
  124.8516  121.7965   88.0479 C   0  0  0  0  0  0  0  0  0  0  0  0
  125.4019  121.6784   89.2996 O   0  0  0  0  0  0  0  0  0  0  0  0
  124.5185  121.6434   90.4116 C   0  0  0  0  0  0  0  0  0  0  0  0
  125.5792  121.2175   86.9944 C   0  0  0  0  0  0  0  0  0  0  0  0
  126.7554  120.6002   87.3394 O   0  0  0  0  0  0  0  0  0  0  0  0
  127.9198  120.9256   86.5930 C   0  0  0  0  0  0  0  0  0  0  0  0
  125.0851  121.3022   85.6907 C   0  0  0  0  0  0  0  0  0  0  0  0
  123.8738  121.9638   85.4198 C   0  0  0  0  0  0  0  0  0  0  0  0
  123.3517  122.0246   83.7133 S   0  0  0  0  0  6  0  0  0  0  0  0
  124.4754  121.6832   82.8702 O   0  0  0  0  0  0  0  0  0  0  0  0
  122.1126  121.2842   83.6131 O   0  0  0  0  0  0  0  0  0  0  0  0
  122.9550  123.6242   83.4575 N   0  0  0  0  0  0  0  0  0  0  0  0
  123.4588  124.5313   82.4087 C   0  0  0  0  0  0  0  0  0  0  0  0
  124.1739  123.8090   81.2668 C   0  0  0  0  0  0  0  0  0  0  0  0
  122.2256  125.2490   81.8280 C   0  0  0  0  0  0  0  0  0  0  0  0
  124.3804  125.5788   83.0414 C   0  0  0  0  0  0  0  0  0  0  0  0
  115.9797  124.2313   84.0942 H   0  0  0  0  0  0  0  0  0  0  0  0
  117.5857  124.6719   83.4210 H   0  0  0  0  0  0  0  0  0  0  0  0
  117.0517  122.9568   83.4210 H   0  0  0  0  0  0  0  0  0  0  0  0
  118.6427  123.0572   87.2413 H   0  0  0  0  0  0  0  0  0  0  0  0
  120.6671  122.1426   87.8048 H   0  0  0  0  0  0  0  0  0  0  0  0
  120.6394  121.4058   86.1338 H   0  0  0  0  0  0  0  0  0  0  0  0
  121.6505  123.4716   85.2353 H   0  0  0  0  0  0  0  0  0  0  0  0
  121.7771  124.0947   86.9475 H   0  0  0  0  0  0  0  0  0  0  0  0
  123.0763  122.8940   88.6044 H   0  0  0  0  0  0  0  0  0  0  0  0
  125.1017  121.6665   91.3440 H   0  0  0  0  0  0  0  0  0  0  0  0
  123.8494  122.5158   90.3760 H   0  0  0  0  0  0  0  0  0  0  0  0
  123.9205  120.7209   90.3760 H   0  0  0  0  0  0  0  0  0  0  0  0
  128.7450  121.1562   87.2828 H   0  0  0  0  0  0  0  0  0  0  0  0
  128.1997  120.0712   85.9591 H   0  0  0  0  0  0  0  0  0  0  0  0
  127.7162  121.8012   85.9591 H   0  0  0  0  0  0  0  0  0  0  0  0
  125.6506  120.8454   84.8652 H   0  0  0  0  0  0  0  0  0  0  0  0
  121.9330  123.6215   83.3301 H   0  0  0  0  0  0  0  0  0  0  0  0
  124.8905  123.0853   81.6825 H   0  0  0  0  0  0  0  0  0  0  0  0
  123.4347  123.2791   80.6482 H   0  0  0  0  0  0  0  0  0  0  0  0
  124.7112  124.5429   80.6482 H   0  0  0  0  0  0  0  0  0  0  0  0
  121.5942  125.6165   82.6504 H   0  0  0  0  0  0  0  0  0  0  0  0
  122.5528  126.0978   81.2095 H   0  0  0  0  0  0  0  0  0  0  0  0
  121.6492  124.5453   81.2095 H   0  0  0  0  0  0  0  0  0  0  0  0
  124.3180  125.5080   84.1374 H   0  0  0  0  0  0  0  0  0  0  0  0
  125.4168  125.3972   82.7206 H   0  0  0  0  0  0  0  0  0  0  0  0
  124.0680  126.5836   82.7206 H   0  0  0  0  0  0  0  0  0  0  0  0
  1  2  1  0
  2  3  1  0
  3  4  2  0
  3  5  1  0
  5  6  1  0
  6  7  1  0
  7  8  1  0
  8  9  2  0
  9 10  1  0
 10 11  1  0
 11 12  1  0
 10 13  2  0
 13 14  1  0
 14 15  1  0
 13 16  1  0
 16 17  2  0
 17 18  1  0
 18 19  2  0
 18 20  2  0
 18 21  1  0
 21 22  1  0
 22 23  1  0
 22 24  1  0
 22 25  1  0
 17  8  1  0
  1 26  1  0
  1 27  1  0
  1 28  1  0
  5 29  1  0
  6 30  1  0
  6 31  1  0
  7 32  1  0
  7 33  1  0
  9 34  1  0
 12 35  1  0
 12 36  1  0
 12 37  1  0
 15 38  1  0
 15 39  1  0
 15 40  1  0
 16 41  1  0
 21 42  1  0
 23 43  1  0
 23 44  1  0
 23 45  1  0
 24 46  1  0
 24 47  1  0
 24 48  1  0
 25 49  1  0
 25 50  1  0
 25 51  1  0
M  END
>  <loss>  (9) 
0.35767680406570435

>  <score>  (9) 
4.343770503997803

$$$$
SOJQYLKYPWFEBD-UHFFFAOYSA-N
     RDKit          3D

 51 51  0  0  0  0  0  0  0  0999 V2000
  116.7327  123.6437   84.0269 C   0  0  0  0  0  0  0  0  0  0  0  0
  117.4270  123.5688   85.2722 O   0  0  0  0  0  0  0  0  0  0  0  0
  118.6789  123.0612   85.1729 C   0  0  0  0  0  0  0  0  0  0  0  0
  119.2485  122.7750   84.1313 O   0  0  0  0  0  0  0  0  0  0  0  0
  119.2117  122.9462   86.4183 N   0  0  0  0  0  0  0  0  0  0  0  0
  120.5026  122.3422   86.6745 C   0  0  0  0  0  0  0  0  0  0  0  0
  121.6847  123.2013   86.1991 C   0  0  0  0  0  0  0  0  0  0  0  0
  123.0347  122.5528   86.4351 C   0  0  0  0  0  0  0  0  0  0  0  0
  123.4696  122.4347   87.7722 C   0  0  0  0  0  0  0  0  0  0  0  0
  124.6804  121.8150   88.1033 C   0  0  0  0  0  0  0  0  0  0  0  0
  125.1506  121.6675   89.3842 O   0  0  0  0  0  0  0  0  0  0  0  0
  124.2215  121.7992   90.4508 C   0  0  0  0  0  0  0  0  0  0  0  0
  125.4931  121.2953   87.0815 C   0  0  0  0  0  0  0  0  0  0  0  0
  126.6625  120.6997   87.4830 O   0  0  0  0  0  0  0  0  0  0  0  0
  127.6622  120.4699   86.4998 C   0  0  0  0  0  0  0  0  0  0  0  0
  125.0834  121.4129   85.7514 C   0  0  0  0  0  0  0  0  0  0  0  0
  123.8727  122.0492   85.4229 C   0  0  0  0  0  0  0  0  0  0  0  0
  123.4622  122.1567   83.6884 S   0  0  0  0  0  6  0  0  0  0  0  0
  124.6845  122.1167   82.9175 O   0  0  0  0  0  0  0  0  0  0  0  0
  122.4067  121.2005   83.4334 O   0  0  0  0  0  0  0  0  0  0  0  0
  122.7696  123.6643   83.5187 N   0  0  0  0  0  0  0  0  0  0  0  0
  123.4257  124.9312   83.1431 C   0  0  0  0  0  0  0  0  0  0  0  0
  124.5627  124.7565   82.1363 C   0  0  0  0  0  0  0  0  0  0  0  0
  122.3370  125.8068   82.4939 C   0  0  0  0  0  0  0  0  0  0  0  0
  123.9308  125.6367   84.4058 C   0  0  0  0  0  0  0  0  0  0  0  0
  115.6551  123.7599   84.2143 H   0  0  0  0  0  0  0  0  0  0  0  0
  117.1004  124.5073   83.4534 H   0  0  0  0  0  0  0  0  0  0  0  0
  116.9078  122.7214   83.4534 H   0  0  0  0  0  0  0  0  0  0  0  0
  118.6713  123.3060   87.2180 H   0  0  0  0  0  0  0  0  0  0  0  0
  120.6028  122.1804   87.7579 H   0  0  0  0  0  0  0  0  0  0  0  0
  120.5379  121.4000   86.1078 H   0  0  0  0  0  0  0  0  0  0  0  0
  121.5703  123.3855   85.1207 H   0  0  0  0  0  0  0  0  0  0  0  0
  121.6652  124.1323   86.7847 H   0  0  0  0  0  0  0  0  0  0  0  0
  122.8394  122.8409   88.5771 H   0  0  0  0  0  0  0  0  0  0  0  0
  124.7527  121.7239   91.4111 H   0  0  0  0  0  0  0  0  0  0  0  0
  123.7223  122.7771   90.3835 H   0  0  0  0  0  0  0  0  0  0  0  0
  123.4702  120.9985   90.3835 H   0  0  0  0  0  0  0  0  0  0  0  0
  128.6196  120.2499   86.9948 H   0  0  0  0  0  0  0  0  0  0  0  0
  127.3694  119.6157   85.8717 H   0  0  0  0  0  0  0  0  0  0  0  0
  127.7717  121.3663   85.8717 H   0  0  0  0  0  0  0  0  0  0  0  0
  125.7157  121.0026   84.9503 H   0  0  0  0  0  0  0  0  0  0  0  0
  122.0323  123.5336   82.8115 H   0  0  0  0  0  0  0  0  0  0  0  0
  125.5105  124.6109   82.6753 H   0  0  0  0  0  0  0  0  0  0  0  0
  124.3615  123.8788   81.5047 H   0  0  0  0  0  0  0  0  0  0  0  0
  124.6343  125.6542   81.5047 H   0  0  0  0  0  0  0  0  0  0  0  0
  121.7373  126.2891   83.2799 H   0  0  0  0  0  0  0  0  0  0  0  0
  122.8111  126.5781   81.8692 H   0  0  0  0  0  0  0  0  0  0  0  0
  121.6853  125.1783   81.8692 H   0  0  0  0  0  0  0  0  0  0  0  0
  123.5541  125.1105   85.2953 H   0  0  0  0  0  0  0  0  0  0  0  0
  125.0308  125.6301   84.4143 H   0  0  0  0  0  0  0  0  0  0  0  0
  123.5703  126.6759   84.4143 H   0  0  0  0  0  0  0  0  0  0  0  0
  1  2  1  0
  2  3  1  0
  3  4  2  0
  3  5  1  0
  5  6  1  0
  6  7  1  0
  7  8  1  0
  8  9  2  0
  9 10  1  0
 10 11  1  0
 11 12  1  0
 10 13  2  0
 13 14  1  0
 14 15  1  0
 13 16  1  0
 16 17  2  0
 17 18  1  0
 18 19  2  0
 18 20  2  0
 18 21  1  0
 21 22  1  0
 22 23  1  0
 22 24  1  0
 22 25  1  0
 17  8  1  0
  1 26  1  0
  1 27  1  0
  1 28  1  0
  5 29  1  0
  6 30  1  0
  6 31  1  0
  7 32  1  0
  7 33  1  0
  9 34  1  0
 12 35  1  0
 12 36  1  0
 12 37  1  0
 15 38  1  0
 15 39  1  0
 15 40  1  0
 16 41  1  0
 21 42  1  0
 23 43  1  0
 23 44  1  0
 23 45  1  0
 24 46  1  0
 24 47  1  0
 24 48  1  0
 25 49  1  0
 25 50  1  0
 25 51  1  0
M  END
>  <loss>  (10) 
0.39202621579170227

>  <score>  (10) 
4.513962268829346

$$$$
SOJQYLKYPWFEBD-UHFFFAOYSA-N
     RDKit          3D

 51 51  0  0  0  0  0  0  0  0999 V2000
  117.0112  123.8213   83.8325 C   0  0  0  0  0  0  0  0  0  0  0  0
  118.3545  124.2513   84.0535 O   0  0  0  0  0  0  0  0  0  0  0  0
  118.9190  123.7371   85.1733 C   0  0  0  0  0  0  0  0  0  0  0  0
  118.3626  123.0065   85.9800 O   0  0  0  0  0  0  0  0  0  0  0  0
  120.2122  124.1580   85.2555 N   0  0  0  0  0  0  0  0  0  0  0  0
  121.1125  123.7154   86.2969 C   0  0  0  0  0  0  0  0  0  0  0  0
  121.3378  122.1980   86.2731 C   0  0  0  0  0  0  0  0  0  0  0  0
  122.7601  121.8255   86.6308 C   0  0  0  0  0  0  0  0  0  0  0  0
  123.0661  121.7241   88.0046 C   0  0  0  0  0  0  0  0  0  0  0  0
  124.3541  121.4063   88.4517 C   0  0  0  0  0  0  0  0  0  0  0  0
  124.7095  121.2953   89.7720 O   0  0  0  0  0  0  0  0  0  0  0  0
  123.7024  121.5163   90.7516 C   0  0  0  0  0  0  0  0  0  0  0  0
  125.3727  121.1668   87.5140 C   0  0  0  0  0  0  0  0  0  0  0  0
  126.6099  120.8703   88.0284 O   0  0  0  0  0  0  0  0  0  0  0  0
  127.6874  120.7117   87.1166 C   0  0  0  0  0  0  0  0  0  0  0  0
  125.0843  121.2519   86.1496 C   0  0  0  0  0  0  0  0  0  0  0  0
  123.7902  121.5794   85.7057 C   0  0  0  0  0  0  0  0  0  0  0  0
  123.5359  121.6414   83.9368 S   0  0  0  0  0  6  0  0  0  0  0  0
  122.1489  121.3389   83.6772 O   0  0  0  0  0  0  0  0  0  0  0  0
  124.6094  120.9040   83.3017 O   0  0  0  0  0  0  0  0  0  0  0  0
  123.8665  123.2747   83.6009 N   0  0  0  0  0  0  0  0  0  0  0  0
  123.4370  123.8613   82.2861 C   0  0  0  0  0  0  0  0  0  0  0  0
  124.2865  125.1309   82.0838 C   0  0  0  0  0  0  0  0  0  0  0  0
  121.9629  124.2776   82.3437 C   0  0  0  0  0  0  0  0  0  0  0  0
  123.6926  122.9074   81.1155 C   0  0  0  0  0  0  0  0  0  0  0  0
  116.5134  123.6619   84.8004 H   0  0  0  0  0  0  0  0  0  0  0  0
  116.4688  124.5907   83.2635 H   0  0  0  0  0  0  0  0  0  0  0  0
  117.0165  122.8799   83.2635 H   0  0  0  0  0  0  0  0  0  0  0  0
  120.5629  124.8184   84.5471 H   0  0  0  0  0  0  0  0  0  0  0  0
  122.0817  124.2181   86.1625 H   0  0  0  0  0  0  0  0  0  0  0  0
  120.6554  123.9703   87.2644 H   0  0  0  0  0  0  0  0  0  0  0  0
  120.6558  121.7272   86.9965 H   0  0  0  0  0  0  0  0  0  0  0  0
  121.1431  121.8437   85.2501 H   0  0  0  0  0  0  0  0  0  0  0  0
  122.2710  121.8995   88.7443 H   0  0  0  0  0  0  0  0  0  0  0  0
  124.1405  121.4202   91.7560 H   0  0  0  0  0  0  0  0  0  0  0  0
  123.2864  122.5271   90.6282 H   0  0  0  0  0  0  0  0  0  0  0  0
  122.9014  120.7726   90.6282 H   0  0  0  0  0  0  0  0  0  0  0  0
  128.6242  120.5737   87.6764 H   0  0  0  0  0  0  0  0  0  0  0  0
  127.5054  119.8306   86.4836 H   0  0  0  0  0  0  0  0  0  0  0  0
  127.7670  121.6078   86.4836 H   0  0  0  0  0  0  0  0  0  0  0  0
  125.8789  121.0605   85.4134 H   0  0  0  0  0  0  0  0  0  0  0  0
  123.4122  123.8303   84.3396 H   0  0  0  0  0  0  0  0  0  0  0  0
  124.5644  125.5461   83.0638 H   0  0  0  0  0  0  0  0  0  0  0  0
  125.1973  124.8769   81.5216 H   0  0  0  0  0  0  0  0  0  0  0  0
  123.7044  125.8759   81.5216 H   0  0  0  0  0  0  0  0  0  0  0  0
  121.6479  124.3666   83.3939 H   0  0  0  0  0  0  0  0  0  0  0  0
  121.8356  125.2468   81.8393 H   0  0  0  0  0  0  0  0  0  0  0  0
  121.3475  123.5181   81.8393 H   0  0  0  0  0  0  0  0  0  0  0  0
  123.9589  121.9133   81.5040 H   0  0  0  0  0  0  0  0  0  0  0  0
  122.7837  122.8294   80.5008 H   0  0  0  0  0  0  0  0  0  0  0  0
  124.5188  123.2943   80.5008 H   0  0  0  0  0  0  0  0  0  0  0  0
  1  2  1  0
  2  3  1  0
  3  4  2  0
  3  5  1  0
  5  6  1  0
  6  7  1  0
  7  8  1  0
  8  9  2  0
  9 10  1  0
 10 11  1  0
 11 12  1  0
 10 13  2  0
 13 14  1  0
 14 15  1  0
 13 16  1  0
 16 17  2  0
 17 18  1  0
 18 19  2  0
 18 20  2  0
 18 21  1  0
 21 22  1  0
 22 23  1  0
 22 24  1  0
 22 25  1  0
 17  8  1  0
  1 26  1  0
  1 27  1  0
  1 28  1  0
  5 29  1  0
  6 30  1  0
  6 31  1  0
  7 32  1  0
  7 33  1  0
  9 34  1  0
 12 35  1  0
 12 36  1  0
 12 37  1  0
 15 38  1  0
 15 39  1  0
 15 40  1  0
 16 41  1  0
 21 42  1  0
 23 43  1  0
 23 44  1  0
 23 45  1  0
 24 46  1  0
 24 47  1  0
 24 48  1  0
 25 49  1  0
 25 50  1  0
 25 51  1  0
M  END
>  <loss>  (11) 
0.4189818501472473

>  <score>  (11) 
4.54599666595459

$$$$
SOJQYLKYPWFEBD-UHFFFAOYSA-N
     RDKit          3D

 51 51  0  0  0  0  0  0  0  0999 V2000
  116.6493  123.2827   84.4249 C   0  0  0  0  0  0  0  0  0  0  0  0
  117.4133  123.2808   85.6310 O   0  0  0  0  0  0  0  0  0  0  0  0
  118.6827  123.7276   85.4765 C   0  0  0  0  0  0  0  0  0  0  0  0
  119.1094  124.3358   84.5070 O   0  0  0  0  0  0  0  0  0  0  0  0
  119.4047  123.4072   86.5858 N   0  0  0  0  0  0  0  0  0  0  0  0
  120.8479  123.4956   86.6019 C   0  0  0  0  0  0  0  0  0  0  0  0
  121.5063  122.1960   86.1255 C   0  0  0  0  0  0  0  0  0  0  0  0
  122.9632  121.9686   86.4847 C   0  0  0  0  0  0  0  0  0  0  0  0
  123.3503  121.7256   87.8188 C   0  0  0  0  0  0  0  0  0  0  0  0
  124.6939  121.5433   88.1810 C   0  0  0  0  0  0  0  0  0  0  0  0
  125.1251  121.3026   89.4624 O   0  0  0  0  0  0  0  0  0  0  0  0
  124.2152  121.5389   90.5272 C   0  0  0  0  0  0  0  0  0  0  0  0
  125.6947  121.5986   87.1971 C   0  0  0  0  0  0  0  0  0  0  0  0
  126.9831  121.4136   87.6310 O   0  0  0  0  0  0  0  0  0  0  0  0
  127.9983  121.2617   86.6493 C   0  0  0  0  0  0  0  0  0  0  0  0
  125.3333  121.8229   85.8696 C   0  0  0  0  0  0  0  0  0  0  0  0
  123.9823  121.9859   85.5091 C   0  0  0  0  0  0  0  0  0  0  0  0
  123.6560  122.2010   83.7618 S   0  0  0  0  0  6  0  0  0  0  0  0
  123.9085  123.5659   83.3641 O   0  0  0  0  0  0  0  0  0  0  0  0
  124.2894  121.0860   83.0931 O   0  0  0  0  0  0  0  0  0  0  0  0
  122.0034  121.9263   83.6285 N   0  0  0  0  0  0  0  0  0  0  0  0
  121.2359  121.9957   82.3642 C   0  0  0  0  0  0  0  0  0  0  0  0
  119.8109  121.5203   82.7021 C   0  0  0  0  0  0  0  0  0  0  0  0
  121.8466  121.0323   81.3407 C   0  0  0  0  0  0  0  0  0  0  0  0
  121.1462  123.4135   81.7943 C   0  0  0  0  0  0  0  0  0  0  0  0
  115.5770  123.2853   84.6701 H   0  0  0  0  0  0  0  0  0  0  0  0
  116.8934  124.1802   83.8377 H   0  0  0  0  0  0  0  0  0  0  0  0
  116.8890  122.3840   83.8377 H   0  0  0  0  0  0  0  0  0  0  0  0
  118.9108  123.0943   87.4338 H   0  0  0  0  0  0  0  0  0  0  0  0
  121.1612  124.3162   85.9399 H   0  0  0  0  0  0  0  0  0  0  0  0
  121.1663  123.6784   87.6388 H   0  0  0  0  0  0  0  0  0  0  0  0
  120.9294  121.3610   86.5499 H   0  0  0  0  0  0  0  0  0  0  0  0
  121.4992  122.2677   85.0279 H   0  0  0  0  0  0  0  0  0  0  0  0
  122.5761  121.6774   88.5987 H   0  0  0  0  0  0  0  0  0  0  0  0
  124.7328  121.4045   91.4885 H   0  0  0  0  0  0  0  0  0  0  0  0
  123.8299  122.5670   90.4589 H   0  0  0  0  0  0  0  0  0  0  0  0
  123.3783  120.8284   90.4589 H   0  0  0  0  0  0  0  0  0  0  0  0
  128.9693  121.1164   87.1454 H   0  0  0  0  0  0  0  0  0  0  0  0
  127.7730  120.3872   86.0211 H   0  0  0  0  0  0  0  0  0  0  0  0
  128.0389  122.1637   86.0211 H   0  0  0  0  0  0  0  0  0  0  0  0
  126.1127  121.8730   85.0950 H   0  0  0  0  0  0  0  0  0  0  0  0
  121.8519  120.9743   83.9912 H   0  0  0  0  0  0  0  0  0  0  0  0
  119.6875  121.4791   83.7944 H   0  0  0  0  0  0  0  0  0  0  0  0
  119.0793  122.2230   82.2767 H   0  0  0  0  0  0  0  0  0  0  0  0
  119.6479  120.5191   82.2767 H   0  0  0  0  0  0  0  0  0  0  0  0
  122.3635  120.2168   81.8677 H   0  0  0  0  0  0  0  0  0  0  0  0
  121.0487  120.6134   80.7099 H   0  0  0  0  0  0  0  0  0  0  0  0
  122.5659  121.5751   80.7099 H   0  0  0  0  0  0  0  0  0  0  0  0
  121.1003  124.1385   82.6203 H   0  0  0  0  0  0  0  0  0  0  0  0
  122.0333  123.6172   81.1765 H   0  0  0  0  0  0  0  0  0  0  0  0
  120.2406  123.5038   81.1765 H   0  0  0  0  0  0  0  0  0  0  0  0
  1  2  1  0
  2  3  1  0
  3  4  2  0
  3  5  1  0
  5  6  1  0
  6  7  1  0
  7  8  1  0
  8  9  2  0
  9 10  1  0
 10 11  1  0
 11 12  1  0
 10 13  2  0
 13 14  1  0
 14 15  1  0
 13 16  1  0
 16 17  2  0
 17 18  1  0
 18 19  2  0
 18 20  2  0
 18 21  1  0
 21 22  1  0
 22 23  1  0
 22 24  1  0
 22 25  1  0
 17  8  1  0
  1 26  1  0
  1 27  1  0
  1 28  1  0
  5 29  1  0
  6 30  1  0
  6 31  1  0
  7 32  1  0
  7 33  1  0
  9 34  1  0
 12 35  1  0
 12 36  1  0
 12 37  1  0
 15 38  1  0
 15 39  1  0
 15 40  1  0
 16 41  1  0
 21 42  1  0
 23 43  1  0
 23 44  1  0
 23 45  1  0
 24 46  1  0
 24 47  1  0
 24 48  1  0
 25 49  1  0
 25 50  1  0
 25 51  1  0
M  END
>  <loss>  (12) 
0.49757808446884155

>  <score>  (12) 
4.782975196838379

$$$$
SOJQYLKYPWFEBD-UHFFFAOYSA-N
     RDKit          3D

 51 51  0  0  0  0  0  0  0  0999 V2000
  117.4726  123.7742   83.2946 C   0  0  0  0  0  0  0  0  0  0  0  0
  117.6929  123.5222   84.6826 O   0  0  0  0  0  0  0  0  0  0  0  0
  118.9555  123.7888   85.0944 C   0  0  0  0  0  0  0  0  0  0  0  0
  119.7793  124.4492   84.4803 O   0  0  0  0  0  0  0  0  0  0  0  0
  119.1546  123.2182   86.3148 N   0  0  0  0  0  0  0  0  0  0  0  0
  120.4771  123.0941   86.8862 C   0  0  0  0  0  0  0  0  0  0  0  0
  121.3266  122.0568   86.1434 C   0  0  0  0  0  0  0  0  0  0  0  0
  122.7726  121.8889   86.5727 C   0  0  0  0  0  0  0  0  0  0  0  0
  123.1010  121.6070   87.9149 C   0  0  0  0  0  0  0  0  0  0  0  0
  124.4314  121.4782   88.3429 C   0  0  0  0  0  0  0  0  0  0  0  0
  124.8064  121.2032   89.6349 O   0  0  0  0  0  0  0  0  0  0  0  0
  123.8848  121.5007   90.6741 C   0  0  0  0  0  0  0  0  0  0  0  0
  125.4784  121.6285   87.4189 C   0  0  0  0  0  0  0  0  0  0  0  0
  126.7501  121.4908   87.9152 O   0  0  0  0  0  0  0  0  0  0  0  0
  127.8184  121.3924   86.9843 C   0  0  0  0  0  0  0  0  0  0  0  0
  125.1763  121.8926   86.0840 C   0  0  0  0  0  0  0  0  0  0  0  0
  123.8395  122.0019   85.6565 C   0  0  0  0  0  0  0  0  0  0  0  0
  123.5951  122.2773   83.9043 S   0  0  0  0  0  6  0  0  0  0  0  0
  122.2870  122.8368   83.6576 O   0  0  0  0  0  0  0  0  0  0  0  0
  124.7985  122.9209   83.4256 O   0  0  0  0  0  0  0  0  0  0  0  0
  123.6214  120.7295   83.2503 N   0  0  0  0  0  0  0  0  0  0  0  0
  122.6970  120.2407   82.2020 C   0  0  0  0  0  0  0  0  0  0  0  0
  123.4232  119.0790   81.4990 C   0  0  0  0  0  0  0  0  0  0  0  0
  122.4463  121.3549   81.1800 C   0  0  0  0  0  0  0  0  0  0  0  0
  121.3770  119.7099   82.7665 C   0  0  0  0  0  0  0  0  0  0  0  0
  116.7525  124.5979   83.1813 H   0  0  0  0  0  0  0  0  0  0  0  0
  118.4241  124.0505   82.8166 H   0  0  0  0  0  0  0  0  0  0  0  0
  117.0717  122.8682   82.8166 H   0  0  0  0  0  0  0  0  0  0  0  0
  118.3437  122.8666   86.8435 H   0  0  0  0  0  0  0  0  0  0  0  0
  120.9808  124.0705   86.8322 H   0  0  0  0  0  0  0  0  0  0  0  0
  120.3676  122.7610   87.9289 H   0  0  0  0  0  0  0  0  0  0  0  0
  120.8330  121.0812   86.2640 H   0  0  0  0  0  0  0  0  0  0  0  0
  121.3856  122.4341   85.1118 H   0  0  0  0  0  0  0  0  0  0  0  0
  122.2903  121.4845   88.6482 H   0  0  0  0  0  0  0  0  0  0  0  0
  124.3689  121.3444   91.6494 H   0  0  0  0  0  0  0  0  0  0  0  0
  123.5617  122.5487   90.5888 H   0  0  0  0  0  0  0  0  0  0  0  0
  123.0100  120.8392   90.5888 H   0  0  0  0  0  0  0  0  0  0  0  0
  128.7710  121.3046   87.5274 H   0  0  0  0  0  0  0  0  0  0  0  0
  127.6734  120.5038   86.3523 H   0  0  0  0  0  0  0  0  0  0  0  0
  127.8382  122.2925   86.3523 H   0  0  0  0  0  0  0  0  0  0  0  0
  125.9918  122.0171   85.3563 H   0  0  0  0  0  0  0  0  0  0  0  0
  124.5676  120.6106   82.8610 H   0  0  0  0  0  0  0  0  0  0  0  0
  123.8471  118.4009   82.2544 H   0  0  0  0  0  0  0  0  0  0  0  0
  122.7091  118.5270   80.8703 H   0  0  0  0  0  0  0  0  0  0  0  0
  124.2322  119.4792   80.8703 H   0  0  0  0  0  0  0  0  0  0  0  0
  122.2346  122.2962   81.7083 H   0  0  0  0  0  0  0  0  0  0  0  0
  123.3385  121.4813   80.5490 H   0  0  0  0  0  0  0  0  0  0  0  0
  121.5860  121.0870   80.5490 H   0  0  0  0  0  0  0  0  0  0  0  0
  121.4157  119.7255   83.8657 H   0  0  0  0  0  0  0  0  0  0  0  0
  120.5483  120.3447   82.4198 H   0  0  0  0  0  0  0  0  0  0  0  0
  121.2184  118.6781   82.4198 H   0  0  0  0  0  0  0  0  0  0  0  0
  1  2  1  0
  2  3  1  0
  3  4  2  0
  3  5  1  0
  5  6  1  0
  6  7  1  0
  7  8  1  0
  8  9  2  0
  9 10  1  0
 10 11  1  0
 11 12  1  0
 10 13  2  0
 13 14  1  0
 14 15  1  0
 13 16  1  0
 16 17  2  0
 17 18  1  0
 18 19  2  0
 18 20  2  0
 18 21  1  0
 21 22  1  0
 22 23  1  0
 22 24  1  0
 22 25  1  0
 17  8  1  0
  1 26  1  0
  1 27  1  0
  1 28  1  0
  5 29  1  0
  6 30  1  0
  6 31  1  0
  7 32  1  0
  7 33  1  0
  9 34  1  0
 12 35  1  0
 12 36  1  0
 12 37  1  0
 15 38  1  0
 15 39  1  0
 15 40  1  0
 16 41  1  0
 21 42  1  0
 23 43  1  0
 23 44  1  0
 23 45  1  0
 24 46  1  0
 24 47  1  0
 24 48  1  0
 25 49  1  0
 25 50  1  0
 25 51  1  0
M  END
>  <loss>  (13) 
0.48109087347984314

>  <score>  (13) 
4.649318695068359

$$$$
SOJQYLKYPWFEBD-UHFFFAOYSA-N
     RDKit          3D

 51 51  0  0  0  0  0  0  0  0999 V2000
  116.3998  123.5483   83.6560 C   0  0  0  0  0  0  0  0  0  0  0  0
  117.3580  123.8124   84.6799 O   0  0  0  0  0  0  0  0  0  0  0  0
  118.4047  122.9534   84.6898 C   0  0  0  0  0  0  0  0  0  0  0  0
  118.4413  121.8720   84.1225 O   0  0  0  0  0  0  0  0  0  0  0  0
  119.4038  123.4796   85.4487 N   0  0  0  0  0  0  0  0  0  0  0  0
  120.4604  122.6688   86.0022 C   0  0  0  0  0  0  0  0  0  0  0  0
  121.6271  123.4946   86.5504 C   0  0  0  0  0  0  0  0  0  0  0  0
  122.9106  122.7064   86.7154 C   0  0  0  0  0  0  0  0  0  0  0  0
  123.3747  122.5340   88.0406 C   0  0  0  0  0  0  0  0  0  0  0  0
  124.5382  121.8115   88.3351 C   0  0  0  0  0  0  0  0  0  0  0  0
  125.0379  121.6234   89.5992 O   0  0  0  0  0  0  0  0  0  0  0  0
  124.1141  121.5688   90.6768 C   0  0  0  0  0  0  0  0  0  0  0  0
  125.2668  121.2242   87.2902 C   0  0  0  0  0  0  0  0  0  0  0  0
  126.3986  120.5350   87.6473 O   0  0  0  0  0  0  0  0  0  0  0  0
  127.6007  120.8520   86.9599 C   0  0  0  0  0  0  0  0  0  0  0  0
  124.8253  121.3818   85.9759 C   0  0  0  0  0  0  0  0  0  0  0  0
  123.6604  122.1197   85.6803 C   0  0  0  0  0  0  0  0  0  0  0  0
  123.2523  122.2008   83.9427 S   0  0  0  0  0  6  0  0  0  0  0  0
  121.8608  122.5319   83.7415 O   0  0  0  0  0  0  0  0  0  0  0  0
  123.8279  121.0215   83.3319 O   0  0  0  0  0  0  0  0  0  0  0  0
  124.1896  123.4771   83.3889 N   0  0  0  0  0  0  0  0  0  0  0  0
  123.7120  124.5870   82.5378 C   0  0  0  0  0  0  0  0  0  0  0  0
  124.9569  125.1516   81.8289 C   0  0  0  0  0  0  0  0  0  0  0  0
  122.7456  124.0449   81.4792 C   0  0  0  0  0  0  0  0  0  0  0  0
  123.0647  125.7151   83.3415 C   0  0  0  0  0  0  0  0  0  0  0  0
  115.4362  123.2827   84.1152 H   0  0  0  0  0  0  0  0  0  0  0  0
  116.2737  124.4451   83.0317 H   0  0  0  0  0  0  0  0  0  0  0  0
  116.7510  122.7134   83.0317 H   0  0  0  0  0  0  0  0  0  0  0  0
  119.4057  124.4927   85.6345 H   0  0  0  0  0  0  0  0  0  0  0  0
  120.0446  122.0635   86.8212 H   0  0  0  0  0  0  0  0  0  0  0  0
  120.8552  122.0440   85.1875 H   0  0  0  0  0  0  0  0  0  0  0  0
  121.8183  124.3273   85.8576 H   0  0  0  0  0  0  0  0  0  0  0  0
  121.3322  123.8396   87.5525 H   0  0  0  0  0  0  0  0  0  0  0  0
  122.8033  122.9821   88.8669 H   0  0  0  0  0  0  0  0  0  0  0  0
  124.6610  121.6011   91.6306 H   0  0  0  0  0  0  0  0  0  0  0  0
  123.4299  122.4281   90.6171 H   0  0  0  0  0  0  0  0  0  0  0  0
  123.5359  120.6349   90.6171 H   0  0  0  0  0  0  0  0  0  0  0  0
  128.3962  121.0617   87.6900 H   0  0  0  0  0  0  0  0  0  0  0  0
  127.8973  120.0013   86.3286 H   0  0  0  0  0  0  0  0  0  0  0  0
  127.4393  121.7383   86.3286 H   0  0  0  0  0  0  0  0  0  0  0  0
  125.3962  120.9222   85.1556 H   0  0  0  0  0  0  0  0  0  0  0  0
  124.5659  123.9262   84.2360 H   0  0  0  0  0  0  0  0  0  0  0  0
  125.6881  125.4832   82.5808 H   0  0  0  0  0  0  0  0  0  0  0  0
  125.4069  124.3695   81.1998 H   0  0  0  0  0  0  0  0  0  0  0  0
  124.6650  126.0054   81.1998 H   0  0  0  0  0  0  0  0  0  0  0  0
  121.8895  123.5646   81.9758 H   0  0  0  0  0  0  0  0  0  0  0  0
  122.3873  124.8737   80.8510 H   0  0  0  0  0  0  0  0  0  0  0  0
  123.2662  123.3071   80.8510 H   0  0  0  0  0  0  0  0  0  0  0  0
  123.1807  125.5128   84.4165 H   0  0  0  0  0  0  0  0  0  0  0  0
  123.5527  126.6691   83.0931 H   0  0  0  0  0  0  0  0  0  0  0  0
  121.9947  125.7750   83.0931 H   0  0  0  0  0  0  0  0  0  0  0  0
  1  2  1  0
  2  3  1  0
  3  4  2  0
  3  5  1  0
  5  6  1  0
  6  7  1  0
  7  8  1  0
  8  9  2  0
  9 10  1  0
 10 11  1  0
 11 12  1  0
 10 13  2  0
 13 14  1  0
 14 15  1  0
 13 16  1  0
 16 17  2  0
 17 18  1  0
 18 19  2  0
 18 20  2  0
 18 21  1  0
 21 22  1  0
 22 23  1  0
 22 24  1  0
 22 25  1  0
 17  8  1  0
  1 26  1  0
  1 27  1  0
  1 28  1  0
  5 29  1  0
  6 30  1  0
  6 31  1  0
  7 32  1  0
  7 33  1  0
  9 34  1  0
 12 35  1  0
 12 36  1  0
 12 37  1  0
 15 38  1  0
 15 39  1  0
 15 40  1  0
 16 41  1  0
 21 42  1  0
 23 43  1  0
 23 44  1  0
 23 45  1  0
 24 46  1  0
 24 47  1  0
 24 48  1  0
 25 49  1  0
 25 50  1  0
 25 51  1  0
M  END
>  <loss>  (14) 
0.4173048734664917

>  <score>  (14) 
4.255016326904297

$$$$
SOJQYLKYPWFEBD-UHFFFAOYSA-N
     RDKit          3D

 51 51  0  0  0  0  0  0  0  0999 V2000
  116.9312  123.7284   83.1062 C   0  0  0  0  0  0  0  0  0  0  0  0
  117.4905  123.6525   84.4177 O   0  0  0  0  0  0  0  0  0  0  0  0
  118.7419  123.1351   84.4515 C   0  0  0  0  0  0  0  0  0  0  0  0
  119.4535  122.9338   83.4796 O   0  0  0  0  0  0  0  0  0  0  0  0
  119.0907  122.9004   85.7443 N   0  0  0  0  0  0  0  0  0  0  0  0
  120.3530  122.3034   86.1277 C   0  0  0  0  0  0  0  0  0  0  0  0
  121.5476  123.2610   85.9949 C   0  0  0  0  0  0  0  0  0  0  0  0
  122.8807  122.6087   86.3049 C   0  0  0  0  0  0  0  0  0  0  0  0
  123.2252  122.4577   87.6648 C   0  0  0  0  0  0  0  0  0  0  0  0
  124.4129  121.8317   88.0610 C   0  0  0  0  0  0  0  0  0  0  0  0
  124.7966  121.6529   89.3665 O   0  0  0  0  0  0  0  0  0  0  0  0
  123.7946  121.2996   90.3095 C   0  0  0  0  0  0  0  0  0  0  0  0
  125.2939  121.3387   87.0835 C   0  0  0  0  0  0  0  0  0  0  0  0
  126.4355  120.7348   87.5477 O   0  0  0  0  0  0  0  0  0  0  0  0
  127.6657  121.0690   86.9200 C   0  0  0  0  0  0  0  0  0  0  0  0
  124.9740  121.4889   85.7322 C   0  0  0  0  0  0  0  0  0  0  0  0
  123.7862  122.1316   85.3391 C   0  0  0  0  0  0  0  0  0  0  0  0
  123.4927  122.2817   83.5841 S   0  0  0  0  0  6  0  0  0  0  0  0
  124.5987  121.6797   82.8740 O   0  0  0  0  0  0  0  0  0  0  0  0
  122.1375  121.8414   83.3327 O   0  0  0  0  0  0  0  0  0  0  0  0
  123.5036  123.9252   83.3008 N   0  0  0  0  0  0  0  0  0  0  0  0
  123.7272  124.6279   82.0230 C   0  0  0  0  0  0  0  0  0  0  0  0
  123.1890  123.8732   80.8073 C   0  0  0  0  0  0  0  0  0  0  0  0
  122.9765  125.9689   82.1292 C   0  0  0  0  0  0  0  0  0  0  0  0
  125.2223  124.9173   81.8561 C   0  0  0  0  0  0  0  0  0  0  0  0
  115.8436  123.8761   83.1795 H   0  0  0  0  0  0  0  0  0  0  0  0
  117.3803  124.5738   82.5644 H   0  0  0  0  0  0  0  0  0  0  0  0
  117.1387  122.7939   82.5644 H   0  0  0  0  0  0  0  0  0  0  0  0
  118.4253  123.1595   86.4865 H   0  0  0  0  0  0  0  0  0  0  0  0
  120.2810  121.9795   87.1765 H   0  0  0  0  0  0  0  0  0  0  0  0
  120.5347  121.4615   85.4435 H   0  0  0  0  0  0  0  0  0  0  0  0
  121.5769  123.6405   84.9629 H   0  0  0  0  0  0  0  0  0  0  0  0
  121.4015  124.0658   86.7304 H   0  0  0  0  0  0  0  0  0  0  0  0
  122.5412  122.8429   88.4354 H   0  0  0  0  0  0  0  0  0  0  0  0
  124.1853  121.4374   91.3285 H   0  0  0  0  0  0  0  0  0  0  0  0
  122.9127  121.9410   90.1651 H   0  0  0  0  0  0  0  0  0  0  0  0
  123.5100  120.2469   90.1651 H   0  0  0  0  0  0  0  0  0  0  0  0
  128.4253  121.2753   87.6884 H   0  0  0  0  0  0  0  0  0  0  0  0
  127.9975  120.2284   86.2928 H   0  0  0  0  0  0  0  0  0  0  0  0
  127.5266  121.9619   86.2928 H   0  0  0  0  0  0  0  0  0  0  0  0
  125.6599  121.0995   84.9655 H   0  0  0  0  0  0  0  0  0  0  0  0
  122.5790  124.2499   83.6179 H   0  0  0  0  0  0  0  0  0  0  0  0
  122.5812  123.0207   81.1446 H   0  0  0  0  0  0  0  0  0  0  0  0
  122.5681  124.5494   80.2013 H   0  0  0  0  0  0  0  0  0  0  0  0
  124.0307  123.5065   80.2013 H   0  0  0  0  0  0  0  0  0  0  0  0
  122.8328  126.2257   83.1891 H   0  0  0  0  0  0  0  0  0  0  0  0
  123.5641  126.7580   81.6372 H   0  0  0  0  0  0  0  0  0  0  0  0
  121.9967  125.8806   81.6372 H   0  0  0  0  0  0  0  0  0  0  0  0
  125.6911  125.0080   82.8471 H   0  0  0  0  0  0  0  0  0  0  0  0
  125.6954  124.0940   81.3007 H   0  0  0  0  0  0  0  0  0  0  0  0
  125.3541  125.8576   81.3007 H   0  0  0  0  0  0  0  0  0  0  0  0
  1  2  1  0
  2  3  1  0
  3  4  2  0
  3  5  1  0
  5  6  1  0
  6  7  1  0
  7  8  1  0
  8  9  2  0
  9 10  1  0
 10 11  1  0
 11 12  1  0
 10 13  2  0
 13 14  1  0
 14 15  1  0
 13 16  1  0
 16 17  2  0
 17 18  1  0
 18 19  2  0
 18 20  2  0
 18 21  1  0
 21 22  1  0
 22 23  1  0
 22 24  1  0
 22 25  1  0
 17  8  1  0
  1 26  1  0
  1 27  1  0
  1 28  1  0
  5 29  1  0
  6 30  1  0
  6 31  1  0
  7 32  1  0
  7 33  1  0
  9 34  1  0
 12 35  1  0
 12 36  1  0
 12 37  1  0
 15 38  1  0
 15 39  1  0
 15 40  1  0
 16 41  1  0
 21 42  1  0
 23 43  1  0
 23 44  1  0
 23 45  1  0
 24 46  1  0
 24 47  1  0
 24 48  1  0
 25 49  1  0
 25 50  1  0
 25 51  1  0
M  END
>  <loss>  (15) 
0.3975738286972046

>  <score>  (15) 
4.095958709716797

$$$$
SOJQYLKYPWFEBD-UHFFFAOYSA-N
     RDKit          3D

 51 51  0  0  0  0  0  0  0  0999 V2000
  116.9653  123.6491   83.4047 C   0  0  0  0  0  0  0  0  0  0  0  0
  117.7600  123.8982   84.5644 O   0  0  0  0  0  0  0  0  0  0  0  0
  118.9519  123.2530   84.5628 C   0  0  0  0  0  0  0  0  0  0  0  0
  119.2076  122.2313   83.9422 O   0  0  0  0  0  0  0  0  0  0  0  0
  119.8269  123.9287   85.3590 N   0  0  0  0  0  0  0  0  0  0  0  0
  120.5971  123.2816   86.3977 C   0  0  0  0  0  0  0  0  0  0  0  0
  121.1881  121.9409   85.9424 C   0  0  0  0  0  0  0  0  0  0  0  0
  122.6537  121.8128   86.2956 C   0  0  0  0  0  0  0  0  0  0  0  0
  122.9639  121.5689   87.6504 C   0  0  0  0  0  0  0  0  0  0  0  0
  124.2863  121.4531   88.0949 C   0  0  0  0  0  0  0  0  0  0  0  0
  124.6472  121.2179   89.3973 O   0  0  0  0  0  0  0  0  0  0  0  0
  123.9918  121.9667   90.4134 C   0  0  0  0  0  0  0  0  0  0  0  0
  125.3393  121.5679   87.1717 C   0  0  0  0  0  0  0  0  0  0  0  0
  126.6072  121.4524   87.6840 O   0  0  0  0  0  0  0  0  0  0  0  0
  127.6733  121.2275   86.7728 C   0  0  0  0  0  0  0  0  0  0  0  0
  125.0497  121.7982   85.8244 C   0  0  0  0  0  0  0  0  0  0  0  0
  123.7192  121.9216   85.3843 C   0  0  0  0  0  0  0  0  0  0  0  0
  123.4708  122.1974   83.6351 S   0  0  0  0  0  6  0  0  0  0  0  0
  122.1046  121.8536   83.3215 O   0  0  0  0  0  0  0  0  0  0  0  0
  124.5879  121.6098   82.9237 O   0  0  0  0  0  0  0  0  0  0  0  0
  123.7089  123.8764   83.5165 N   0  0  0  0  0  0  0  0  0  0  0  0
  123.6925  124.5324   82.1649 C   0  0  0  0  0  0  0  0  0  0  0  0
  124.6440  125.7406   82.2619 C   0  0  0  0  0  0  0  0  0  0  0  0
  122.2882  125.0554   81.8427 C   0  0  0  0  0  0  0  0  0  0  0  0
  124.1966  123.5974   81.0615 C   0  0  0  0  0  0  0  0  0  0  0  0
  115.9574  123.3333   83.7118 H   0  0  0  0  0  0  0  0  0  0  0  0
  116.8946  124.5682   82.8045 H   0  0  0  0  0  0  0  0  0  0  0  0
  117.4318  122.8541   82.8045 H   0  0  0  0  0  0  0  0  0  0  0  0
  119.9447  124.9418   85.2152 H   0  0  0  0  0  0  0  0  0  0  0  0
  121.4208  123.9480   86.6932 H   0  0  0  0  0  0  0  0  0  0  0  0
  119.9188  123.0790   87.2397 H   0  0  0  0  0  0  0  0  0  0  0  0
  120.6336  121.1255   86.4299 H   0  0  0  0  0  0  0  0  0  0  0  0
  121.0987  121.8871   84.8473 H   0  0  0  0  0  0  0  0  0  0  0  0
  122.1443  121.4669   88.3770 H   0  0  0  0  0  0  0  0  0  0  0  0
  124.3109  121.6022   91.4010 H   0  0  0  0  0  0  0  0  0  0  0  0
  124.2547  123.0300   90.3126 H   0  0  0  0  0  0  0  0  0  0  0  0
  122.9030  121.8470   90.3126 H   0  0  0  0  0  0  0  0  0  0  0  0
  128.5995  121.0321   87.3331 H   0  0  0  0  0  0  0  0  0  0  0  0
  127.4377  120.3593   86.1398 H   0  0  0  0  0  0  0  0  0  0  0  0
  127.8085  122.1169   86.1398 H   0  0  0  0  0  0  0  0  0  0  0  0
  125.8721  121.8840   85.0989 H   0  0  0  0  0  0  0  0  0  0  0  0
  122.9689  124.3241   84.0758 H   0  0  0  0  0  0  0  0  0  0  0  0
  124.8300  125.9768   83.3200 H   0  0  0  0  0  0  0  0  0  0  0  0
  125.5962  125.4981   81.7675 H   0  0  0  0  0  0  0  0  0  0  0  0
  124.1849  126.6094   81.7675 H   0  0  0  0  0  0  0  0  0  0  0  0
  121.7480  125.2566   82.7796 H   0  0  0  0  0  0  0  0  0  0  0  0
  122.3679  125.9842   81.2587 H   0  0  0  0  0  0  0  0  0  0  0  0
  121.7410  124.3008   81.2587 H   0  0  0  0  0  0  0  0  0  0  0  0
  124.6718  122.7159   81.5166 H   0  0  0  0  0  0  0  0  0  0  0  0
  123.3494  123.2762   80.4377 H   0  0  0  0  0  0  0  0  0  0  0  0
  124.9306  124.1286   80.4377 H   0  0  0  0  0  0  0  0  0  0  0  0
  1  2  1  0
  2  3  1  0
  3  4  2  0
  3  5  1  0
  5  6  1  0
  6  7  1  0
  7  8  1  0
  8  9  2  0
  9 10  1  0
 10 11  1  0
 11 12  1  0
 10 13  2  0
 13 14  1  0
 14 15  1  0
 13 16  1  0
 16 17  2  0
 17 18  1  0
 18 19  2  0
 18 20  2  0
 18 21  1  0
 21 22  1  0
 22 23  1  0
 22 24  1  0
 22 25  1  0
 17  8  1  0
  1 26  1  0
  1 27  1  0
  1 28  1  0
  5 29  1  0
  6 30  1  0
  6 31  1  0
  7 32  1  0
  7 33  1  0
  9 34  1  0
 12 35  1  0
 12 36  1  0
 12 37  1  0
 15 38  1  0
 15 39  1  0
 15 40  1  0
 16 41  1  0
 21 42  1  0
 23 43  1  0
 23 44  1  0
 23 45  1  0
 24 46  1  0
 24 47  1  0
 24 48  1  0
 25 49  1  0
 25 50  1  0
 25 51  1  0
M  END
>  <loss>  (16) 
0.4095081388950348

>  <score>  (16) 
4.131383895874023

$$$$
SOJQYLKYPWFEBD-UHFFFAOYSA-N
     RDKit          3D

 51 51  0  0  0  0  0  0  0  0999 V2000
  117.3346  123.9052   83.5848 C   0  0  0  0  0  0  0  0  0  0  0  0
  117.6491  123.4666   84.9070 O   0  0  0  0  0  0  0  0  0  0  0  0
  118.9276  123.7126   85.2773 C   0  0  0  0  0  0  0  0  0  0  0  0
  119.7040  124.4638   84.7041 O   0  0  0  0  0  0  0  0  0  0  0  0
  119.2120  122.9984   86.4019 N   0  0  0  0  0  0  0  0  0  0  0  0
  120.4616  122.2920   86.5796 C   0  0  0  0  0  0  0  0  0  0  0  0
  121.6424  123.0445   85.9588 C   0  0  0  0  0  0  0  0  0  0  0  0
  122.9798  122.4764   86.3792 C   0  0  0  0  0  0  0  0  0  0  0  0
  123.1562  122.1910   87.7498 C   0  0  0  0  0  0  0  0  0  0  0  0
  124.3526  121.6545   88.2422 C   0  0  0  0  0  0  0  0  0  0  0  0
  124.5812  121.3499   89.5609 O   0  0  0  0  0  0  0  0  0  0  0  0
  123.5813  121.6989   90.5066 C   0  0  0  0  0  0  0  0  0  0  0  0
  125.4108  121.3907   87.3554 C   0  0  0  0  0  0  0  0  0  0  0  0
  126.5493  120.8639   87.9129 O   0  0  0  0  0  0  0  0  0  0  0  0
  127.7800  121.0817   87.2366 C   0  0  0  0  0  0  0  0  0  0  0  0
  125.2534  121.6685   85.9959 C   0  0  0  0  0  0  0  0  0  0  0  0
  124.0466  122.1960   85.5025 C   0  0  0  0  0  0  0  0  0  0  0  0
  123.9651  122.5125   83.7381 S   0  0  0  0  0  6  0  0  0  0  0  0
  125.1075  121.8836   83.1117 O   0  0  0  0  0  0  0  0  0  0  0  0
  123.7253  123.9282   83.5707 O   0  0  0  0  0  0  0  0  0  0  0  0
  122.5776  121.6977   83.2838 N   0  0  0  0  0  0  0  0  0  0  0  0
  122.3932  120.9735   82.0077 C   0  0  0  0  0  0  0  0  0  0  0  0
  123.2850  119.7336   81.9127 C   0  0  0  0  0  0  0  0  0  0  0  0
  120.9241  120.5129   81.9583 C   0  0  0  0  0  0  0  0  0  0  0  0
  122.6358  121.9233   80.8291 C   0  0  0  0  0  0  0  0  0  0  0  0
  116.6943  124.7981   83.6373 H   0  0  0  0  0  0  0  0  0  0  0  0
  118.2635  124.1511   83.0493 H   0  0  0  0  0  0  0  0  0  0  0  0
  116.8037  123.1043   83.0493 H   0  0  0  0  0  0  0  0  0  0  0  0
  118.5101  122.9599   87.1547 H   0  0  0  0  0  0  0  0  0  0  0  0
  120.6479  122.1663   87.6564 H   0  0  0  0  0  0  0  0  0  0  0  0
  120.3758  121.3194   86.0730 H   0  0  0  0  0  0  0  0  0  0  0  0
  121.5624  122.9836   84.8634 H   0  0  0  0  0  0  0  0  0  0  0  0
  121.5968  124.0855   86.3115 H   0  0  0  0  0  0  0  0  0  0  0  0
  122.3327  122.3952   88.4499 H   0  0  0  0  0  0  0  0  0  0  0  0
  123.9752  121.5614   91.5244 H   0  0  0  0  0  0  0  0  0  0  0  0
  123.2930  122.7509   90.3641 H   0  0  0  0  0  0  0  0  0  0  0  0
  122.7009  121.0550   90.3641 H   0  0  0  0  0  0  0  0  0  0  0  0
  128.5835  121.2238   87.9743 H   0  0  0  0  0  0  0  0  0  0  0  0
  128.0110  120.2104   86.6061 H   0  0  0  0  0  0  0  0  0  0  0  0
  127.6980  121.9793   86.6061 H   0  0  0  0  0  0  0  0  0  0  0  0
  126.0840  121.4721   85.3020 H   0  0  0  0  0  0  0  0  0  0  0  0
  122.4178  120.9969   84.0216 H   0  0  0  0  0  0  0  0  0  0  0  0
  123.5363  119.3843   82.9251 H   0  0  0  0  0  0  0  0  0  0  0  0
  122.7508  118.9382   81.3724 H   0  0  0  0  0  0  0  0  0  0  0  0
  124.2091  119.9871   81.3724 H   0  0  0  0  0  0  0  0  0  0  0  0
  120.5428  120.3934   82.9831 H   0  0  0  0  0  0  0  0  0  0  0  0
  120.3216  121.2653   81.4283 H   0  0  0  0  0  0  0  0  0  0  0  0
  120.8590  119.5512   81.4283 H   0  0  0  0  0  0  0  0  0  0  0  0
  122.8912  122.9230   81.2104 H   0  0  0  0  0  0  0  0  0  0  0  0
  123.4654  121.5419   80.2156 H   0  0  0  0  0  0  0  0  0  0  0  0
  121.7250  121.9865   80.2156 H   0  0  0  0  0  0  0  0  0  0  0  0
  1  2  1  0
  2  3  1  0
  3  4  2  0
  3  5  1  0
  5  6  1  0
  6  7  1  0
  7  8  1  0
  8  9  2  0
  9 10  1  0
 10 11  1  0
 11 12  1  0
 10 13  2  0
 13 14  1  0
 14 15  1  0
 13 16  1  0
 16 17  2  0
 17 18  1  0
 18 19  2  0
 18 20  2  0
 18 21  1  0
 21 22  1  0
 22 23  1  0
 22 24  1  0
 22 25  1  0
 17  8  1  0
  1 26  1  0
  1 27  1  0
  1 28  1  0
  5 29  1  0
  6 30  1  0
  6 31  1  0
  7 32  1  0
  7 33  1  0
  9 34  1  0
 12 35  1  0
 12 36  1  0
 12 37  1  0
 15 38  1  0
 15 39  1  0
 15 40  1  0
 16 41  1  0
 21 42  1  0
 23 43  1  0
 23 44  1  0
 23 45  1  0
 24 46  1  0
 24 47  1  0
 24 48  1  0
 25 49  1  0
 25 50  1  0
 25 51  1  0
M  END
>  <loss>  (17) 
0.4813467264175415

>  <score>  (17) 
4.415597915649414

$$$$
SOJQYLKYPWFEBD-UHFFFAOYSA-N
     RDKit          3D

 51 51  0  0  0  0  0  0  0  0999 V2000
  116.9943  123.8381   83.0469 C   0  0  0  0  0  0  0  0  0  0  0  0
  117.5489  123.7368   84.3577 O   0  0  0  0  0  0  0  0  0  0  0  0
  118.7280  123.0729   84.4073 C   0  0  0  0  0  0  0  0  0  0  0  0
  119.3391  122.6379   83.4430 O   0  0  0  0  0  0  0  0  0  0  0  0
  119.1151  122.9516   85.7059 N   0  0  0  0  0  0  0  0  0  0  0  0
  120.3500  122.3106   86.0858 C   0  0  0  0  0  0  0  0  0  0  0  0
  121.5513  123.2594   86.0624 C   0  0  0  0  0  0  0  0  0  0  0  0
  122.8795  122.5710   86.3029 C   0  0  0  0  0  0  0  0  0  0  0  0
  123.2346  122.3479   87.6540 C   0  0  0  0  0  0  0  0  0  0  0  0
  124.4261  121.7060   88.0156 C   0  0  0  0  0  0  0  0  0  0  0  0
  124.8234  121.4744   89.3085 O   0  0  0  0  0  0  0  0  0  0  0  0
  123.8738  121.6876   90.3430 C   0  0  0  0  0  0  0  0  0  0  0  0
  125.2962  121.2538   87.0125 C   0  0  0  0  0  0  0  0  0  0  0  0
  126.4477  120.6383   87.4353 O   0  0  0  0  0  0  0  0  0  0  0  0
  127.6802  121.2695   87.1183 C   0  0  0  0  0  0  0  0  0  0  0  0
  124.9639  121.4633   85.6736 C   0  0  0  0  0  0  0  0  0  0  0  0
  123.7697  122.1204   85.3118 C   0  0  0  0  0  0  0  0  0  0  0  0
  123.5158  122.2855   83.5508 S   0  0  0  0  0  6  0  0  0  0  0  0
  122.1136  122.4142   83.2288 O   0  0  0  0  0  0  0  0  0  0  0  0
  124.3285  121.2655   82.9231 O   0  0  0  0  0  0  0  0  0  0  0  0
  124.2814  123.7336   83.1883 N   0  0  0  0  0  0  0  0  0  0  0  0
  123.7874  124.7511   82.2369 C   0  0  0  0  0  0  0  0  0  0  0  0
  125.0268  125.2811   81.4925 C   0  0  0  0  0  0  0  0  0  0  0  0
  122.8468  124.0930   81.2217 C   0  0  0  0  0  0  0  0  0  0  0  0
  123.1038  125.9298   82.9304 C   0  0  0  0  0  0  0  0  0  0  0  0
  115.9145  124.0352   83.1198 H   0  0  0  0  0  0  0  0  0  0  0  0
  117.4817  124.6621   82.5051 H   0  0  0  0  0  0  0  0  0  0  0  0
  117.1590  122.8950   82.5051 H   0  0  0  0  0  0  0  0  0  0  0  0
  118.5046  123.3308   86.4438 H   0  0  0  0  0  0  0  0  0  0  0  0
  120.2384  121.9121   87.1049 H   0  0  0  0  0  0  0  0  0  0  0  0
  120.5459  121.5153   85.3515 H   0  0  0  0  0  0  0  0  0  0  0  0
  121.5876  123.7487   85.0779 H   0  0  0  0  0  0  0  0  0  0  0  0
  121.4090  123.9765   86.8843 H   0  0  0  0  0  0  0  0  0  0  0  0
  122.5528  122.6896   88.4467 H   0  0  0  0  0  0  0  0  0  0  0  0
  124.3657  121.5771   91.3207 H   0  0  0  0  0  0  0  0  0  0  0  0
  123.4569  122.7017   90.2547 H   0  0  0  0  0  0  0  0  0  0  0  0
  123.0634  120.9490   90.2547 H   0  0  0  0  0  0  0  0  0  0  0  0
  128.2042  121.5380   88.0475 H   0  0  0  0  0  0  0  0  0  0  0  0
  128.3047  120.5803   86.5310 H   0  0  0  0  0  0  0  0  0  0  0  0
  127.4859  122.1791   86.5310 H   0  0  0  0  0  0  0  0  0  0  0  0
  125.6457  121.1097   84.8862 H   0  0  0  0  0  0  0  0  0  0  0  0
  124.3745  124.2252   84.0886 H   0  0  0  0  0  0  0  0  0  0  0  0
  125.7829  125.6044   82.2231 H   0  0  0  0  0  0  0  0  0  0  0  0
  125.4445  124.4829   80.8613 H   0  0  0  0  0  0  0  0  0  0  0  0
  124.7382  126.1345   80.8613 H   0  0  0  0  0  0  0  0  0  0  0  0
  122.0588  123.5416   81.7556 H   0  0  0  0  0  0  0  0  0  0  0  0
  122.3884  124.8684   80.5903 H   0  0  0  0  0  0  0  0  0  0  0  0
  123.4181  123.3966   80.5903 H   0  0  0  0  0  0  0  0  0  0  0  0
  123.1759  125.8056   84.0210 H   0  0  0  0  0  0  0  0  0  0  0  0
  123.5988  126.8665   82.6345 H   0  0  0  0  0  0  0  0  0  0  0  0
  122.0450  125.9654   82.6345 H   0  0  0  0  0  0  0  0  0  0  0  0
  1  2  1  0
  2  3  1  0
  3  4  2  0
  3  5  1  0
  5  6  1  0
  6  7  1  0
  7  8  1  0
  8  9  2  0
  9 10  1  0
 10 11  1  0
 11 12  1  0
 10 13  2  0
 13 14  1  0
 14 15  1  0
 13 16  1  0
 16 17  2  0
 17 18  1  0
 18 19  2  0
 18 20  2  0
 18 21  1  0
 21 22  1  0
 22 23  1  0
 22 24  1  0
 22 25  1  0
 17  8  1  0
  1 26  1  0
  1 27  1  0
  1 28  1  0
  5 29  1  0
  6 30  1  0
  6 31  1  0
  7 32  1  0
  7 33  1  0
  9 34  1  0
 12 35  1  0
 12 36  1  0
 12 37  1  0
 15 38  1  0
 15 39  1  0
 15 40  1  0
 16 41  1  0
 21 42  1  0
 23 43  1  0
 23 44  1  0
 23 45  1  0
 24 46  1  0
 24 47  1  0
 24 48  1  0
 25 49  1  0
 25 50  1  0
 25 51  1  0
M  END
>  <loss>  (18) 
0.41025063395500183

>  <score>  (18) 
4.00193977355957

$$$$
SOJQYLKYPWFEBD-UHFFFAOYSA-N
     RDKit          3D

 51 51  0  0  0  0  0  0  0  0999 V2000
  116.9855  123.7556   84.0079 C   0  0  0  0  0  0  0  0  0  0  0  0
  117.5256  123.5142   85.3077 O   0  0  0  0  0  0  0  0  0  0  0  0
  118.8749  123.4104   85.3308 C   0  0  0  0  0  0  0  0  0  0  0  0
  119.6314  123.7453   84.4301 O   0  0  0  0  0  0  0  0  0  0  0  0
  119.2618  122.8834   86.5259 N   0  0  0  0  0  0  0  0  0  0  0  0
  120.5500  122.2544   86.7182 C   0  0  0  0  0  0  0  0  0  0  0  0
  121.7072  123.2378   86.5183 C   0  0  0  0  0  0  0  0  0  0  0  0
  123.0613  122.5750   86.6410 C   0  0  0  0  0  0  0  0  0  0  0  0
  123.4747  122.1890   87.9339 C   0  0  0  0  0  0  0  0  0  0  0  0
  124.7062  121.5600   88.1560 C   0  0  0  0  0  0  0  0  0  0  0  0
  125.1596  121.1556   89.3868 O   0  0  0  0  0  0  0  0  0  0  0  0
  124.5119  121.6767   90.5378 C   0  0  0  0  0  0  0  0  0  0  0  0
  125.5595  121.3031   87.0690 C   0  0  0  0  0  0  0  0  0  0  0  0
  126.7471  120.6824   87.3665 O   0  0  0  0  0  0  0  0  0  0  0  0
  127.8744  120.9856   86.5561 C   0  0  0  0  0  0  0  0  0  0  0  0
  125.1663  121.6798   85.7829 C   0  0  0  0  0  0  0  0  0  0  0  0
  123.9239  122.3004   85.5612 C   0  0  0  0  0  0  0  0  0  0  0  0
  123.5313  122.7392   83.8662 S   0  0  0  0  0  6  0  0  0  0  0  0
  124.7553  122.7104   83.0956 O   0  0  0  0  0  0  0  0  0  0  0  0
  122.7237  123.9373   83.9133 O   0  0  0  0  0  0  0  0  0  0  0  0
  122.5507  121.4757   83.3788 N   0  0  0  0  0  0  0  0  0  0  0  0
  122.2122  121.1511   81.9763 C   0  0  0  0  0  0  0  0  0  0  0  0
  123.3652  121.4572   81.0179 C   0  0  0  0  0  0  0  0  0  0  0  0
  121.9293  119.6380   81.9189 C   0  0  0  0  0  0  0  0  0  0  0  0
  120.9353  121.8918   81.5629 C   0  0  0  0  0  0  0  0  0  0  0  0
  115.9851  124.2028   84.1037 H   0  0  0  0  0  0  0  0  0  0  0  0
  117.6442  124.4450   83.4593 H   0  0  0  0  0  0  0  0  0  0  0  0
  116.9112  122.8051   83.4593 H   0  0  0  0  0  0  0  0  0  0  0  0
  118.6119  122.9347   87.3233 H   0  0  0  0  0  0  0  0  0  0  0  0
  120.5992  121.8522   87.7409 H   0  0  0  0  0  0  0  0  0  0  0  0
  120.6517  121.4550   85.9695 H   0  0  0  0  0  0  0  0  0  0  0  0
  121.6222  123.6827   85.5158 H   0  0  0  0  0  0  0  0  0  0  0  0
  121.6366  124.0005   87.3078 H   0  0  0  0  0  0  0  0  0  0  0  0
  122.8124  122.3871   88.7895 H   0  0  0  0  0  0  0  0  0  0  0  0
  124.9996  121.2843   91.4423 H   0  0  0  0  0  0  0  0  0  0  0  0
  124.5800  122.7746   90.5315 H   0  0  0  0  0  0  0  0  0  0  0  0
  123.4541  121.3749   90.5315 H   0  0  0  0  0  0  0  0  0  0  0  0
  128.7364  121.2174   87.1990 H   0  0  0  0  0  0  0  0  0  0  0  0
  128.1130  120.1197   85.9211 H   0  0  0  0  0  0  0  0  0  0  0  0
  127.6464  121.8543   85.9211 H   0  0  0  0  0  0  0  0  0  0  0  0
  125.8372  121.4887   84.9324 H   0  0  0  0  0  0  0  0  0  0  0  0
  122.9914  120.6254   83.7577 H   0  0  0  0  0  0  0  0  0  0  0  0
  124.2693  121.6973   81.5967 H   0  0  0  0  0  0  0  0  0  0  0  0
  123.5581  120.5792   80.3840 H   0  0  0  0  0  0  0  0  0  0  0  0
  123.0971  122.3153   80.3840 H   0  0  0  0  0  0  0  0  0  0  0  0
  121.8548  119.2399   82.9416 H   0  0  0  0  0  0  0  0  0  0  0  0
  120.9826  119.4620   81.3871 H   0  0  0  0  0  0  0  0  0  0  0  0
  122.7483  119.1318   81.3871 H   0  0  0  0  0  0  0  0  0  0  0  0
  120.3880  122.2093   82.4627 H   0  0  0  0  0  0  0  0  0  0  0  0
  121.2015  122.7757   80.9647 H   0  0  0  0  0  0  0  0  0  0  0  0
  120.3002  121.2219   80.9647 H   0  0  0  0  0  0  0  0  0  0  0  0
  1  2  1  0
  2  3  1  0
  3  4  2  0
  3  5  1  0
  5  6  1  0
  6  7  1  0
  7  8  1  0
  8  9  2  0
  9 10  1  0
 10 11  1  0
 11 12  1  0
 10 13  2  0
 13 14  1  0
 14 15  1  0
 13 16  1  0
 16 17  2  0
 17 18  1  0
 18 19  2  0
 18 20  2  0
 18 21  1  0
 21 22  1  0
 22 23  1  0
 22 24  1  0
 22 25  1  0
 17  8  1  0
  1 26  1  0
  1 27  1  0
  1 28  1  0
  5 29  1  0
  6 30  1  0
  6 31  1  0
  7 32  1  0
  7 33  1  0
  9 34  1  0
 12 35  1  0
 12 36  1  0
 12 37  1  0
 15 38  1  0
 15 39  1  0
 15 40  1  0
 16 41  1  0
 21 42  1  0
 23 43  1  0
 23 44  1  0
 23 45  1  0
 24 46  1  0
 24 47  1  0
 24 48  1  0
 25 49  1  0
 25 50  1  0
 25 51  1  0
M  END
>  <loss>  (19) 
0.48863333463668823

>  <score>  (19) 
4.279468536376953

$$$$
SOJQYLKYPWFEBD-UHFFFAOYSA-N
     RDKit          3D

 51 51  0  0  0  0  0  0  0  0999 V2000
  116.7830  122.9333   83.3473 C   0  0  0  0  0  0  0  0  0  0  0  0
  117.4106  123.5132   84.4911 O   0  0  0  0  0  0  0  0  0  0  0  0
  118.7637  123.5231   84.4277 C   0  0  0  0  0  0  0  0  0  0  0  0
  119.4292  123.3738   83.4145 O   0  0  0  0  0  0  0  0  0  0  0  0
  119.2653  123.7462   85.6740 N   0  0  0  0  0  0  0  0  0  0  0  0
  120.6834  123.6677   85.9450 C   0  0  0  0  0  0  0  0  0  0  0  0
  121.1603  122.2176   86.0835 C   0  0  0  0  0  0  0  0  0  0  0  0
  122.6142  121.9836   86.4509 C   0  0  0  0  0  0  0  0  0  0  0  0
  122.9850  121.6730   87.7755 C   0  0  0  0  0  0  0  0  0  0  0  0
  124.3250  121.4829   88.1467 C   0  0  0  0  0  0  0  0  0  0  0  0
  124.7407  121.1777   89.4194 O   0  0  0  0  0  0  0  0  0  0  0  0
  123.7747  121.2051   90.4605 C   0  0  0  0  0  0  0  0  0  0  0  0
  125.3388  121.5988   87.1815 C   0  0  0  0  0  0  0  0  0  0  0  0
  126.6226  121.4017   87.6233 O   0  0  0  0  0  0  0  0  0  0  0  0
  127.6734  121.4963   86.6722 C   0  0  0  0  0  0  0  0  0  0  0  0
  124.9938  121.8905   85.8628 C   0  0  0  0  0  0  0  0  0  0  0  0
  123.6465  122.0613   85.4922 C   0  0  0  0  0  0  0  0  0  0  0  0
  123.3424  122.3665   83.7544 S   0  0  0  0  0  6  0  0  0  0  0  0
  122.2302  123.2720   83.5866 O   0  0  0  0  0  0  0  0  0  0  0  0
  124.6336  122.6319   83.1596 O   0  0  0  0  0  0  0  0  0  0  0  0
  122.8738  120.8651   83.1623 N   0  0  0  0  0  0  0  0  0  0  0  0
  122.6647  120.5506   81.7306 C   0  0  0  0  0  0  0  0  0  0  0  0
  122.2657  119.0645   81.6730 C   0  0  0  0  0  0  0  0  0  0  0  0
  123.9807  120.7369   80.9677 C   0  0  0  0  0  0  0  0  0  0  0  0
  121.5424  121.3738   81.0936 C   0  0  0  0  0  0  0  0  0  0  0  0
  116.0115  122.2207   83.6743 H   0  0  0  0  0  0  0  0  0  0  0  0
  116.3175  123.7261   82.7432 H   0  0  0  0  0  0  0  0  0  0  0  0
  117.5364  122.4066   82.7432 H   0  0  0  0  0  0  0  0  0  0  0  0
  118.6188  123.9765   86.4421 H   0  0  0  0  0  0  0  0  0  0  0  0
  121.2303  124.1443   85.1180 H   0  0  0  0  0  0  0  0  0  0  0  0
  120.8771  124.1824   86.8977 H   0  0  0  0  0  0  0  0  0  0  0  0
  120.5446  121.7426   86.8614 H   0  0  0  0  0  0  0  0  0  0  0  0
  121.0579  121.7944   85.0734 H   0  0  0  0  0  0  0  0  0  0  0  0
  122.2005  121.5769   88.5406 H   0  0  0  0  0  0  0  0  0  0  0  0
  124.2851  121.1906   91.4348 H   0  0  0  0  0  0  0  0  0  0  0  0
  123.1708  122.1207   90.3765 H   0  0  0  0  0  0  0  0  0  0  0  0
  123.1200  120.3251   90.3765 H   0  0  0  0  0  0  0  0  0  0  0  0
  128.6362  121.5830   87.1970 H   0  0  0  0  0  0  0  0  0  0  0  0
  127.6794  120.5951   86.0415 H   0  0  0  0  0  0  0  0  0  0  0  0
  127.5182  122.3841   86.0415 H   0  0  0  0  0  0  0  0  0  0  0  0
  125.7833  121.9884   85.1031 H   0  0  0  0  0  0  0  0  0  0  0  0
  123.5931  120.2036   83.4878 H   0  0  0  0  0  0  0  0  0  0  0  0
  122.1606  118.6731   82.6956 H   0  0  0  0  0  0  0  0  0  0  0  0
  121.3083  118.9623   81.1411 H   0  0  0  0  0  0  0  0  0  0  0  0
  123.0431  118.4965   81.1411 H   0  0  0  0  0  0  0  0  0  0  0  0
  124.8067  120.8539   81.6845 H   0  0  0  0  0  0  0  0  0  0  0  0
  124.1659  119.8560   80.3354 H   0  0  0  0  0  0  0  0  0  0  0  0
  123.9140  121.6346   80.3354 H   0  0  0  0  0  0  0  0  0  0  0  0
  120.9256  121.8263   81.8841 H   0  0  0  0  0  0  0  0  0  0  0  0
  121.9788  122.1675   80.4695 H   0  0  0  0  0  0  0  0  0  0  0  0
  120.9163  120.7192   80.4695 H   0  0  0  0  0  0  0  0  0  0  0  0
  1  2  1  0
  2  3  1  0
  3  4  2  0
  3  5  1  0
  5  6  1  0
  6  7  1  0
  7  8  1  0
  8  9  2  0
  9 10  1  0
 10 11  1  0
 11 12  1  0
 10 13  2  0
 13 14  1  0
 14 15  1  0
 13 16  1  0
 16 17  2  0
 17 18  1  0
 18 19  2  0
 18 20  2  0
 18 21  1  0
 21 22  1  0
 22 23  1  0
 22 24  1  0
 22 25  1  0
 17  8  1  0
  1 26  1  0
  1 27  1  0
  1 28  1  0
  5 29  1  0
  6 30  1  0
  6 31  1  0
  7 32  1  0
  7 33  1  0
  9 34  1  0
 12 35  1  0
 12 36  1  0
 12 37  1  0
 15 38  1  0
 15 39  1  0
 15 40  1  0
 16 41  1  0
 21 42  1  0
 23 43  1  0
 23 44  1  0
 23 45  1  0
 24 46  1  0
 24 47  1  0
 24 48  1  0
 25 49  1  0
 25 50  1  0
 25 51  1  0
M  END
>  <loss>  (20) 
0.5248337984085083

>  <score>  (20) 
3.7601256370544434

$$$$
SOJQYLKYPWFEBD-UHFFFAOYSA-N
     RDKit          3D

 51 51  0  0  0  0  0  0  0  0999 V2000
  116.6336  125.0883   86.6727 C   0  0  0  0  0  0  0  0  0  0  0  0
  117.4604  123.9558   86.4042 O   0  0  0  0  0  0  0  0  0  0  0  0
  118.6852  124.0226   86.9789 C   0  0  0  0  0  0  0  0  0  0  0  0
  119.0694  124.9027   87.7337 O   0  0  0  0  0  0  0  0  0  0  0  0
  119.4155  122.9389   86.5959 N   0  0  0  0  0  0  0  0  0  0  0  0
  120.7497  122.7070   87.1028 C   0  0  0  0  0  0  0  0  0  0  0  0
  121.6250  121.9601   86.0901 C   0  0  0  0  0  0  0  0  0  0  0  0
  123.0908  121.7641   86.4315 C   0  0  0  0  0  0  0  0  0  0  0  0
  123.5060  121.5938   87.7683 C   0  0  0  0  0  0  0  0  0  0  0  0
  124.8581  121.4420   88.1127 C   0  0  0  0  0  0  0  0  0  0  0  0
  125.3164  121.2716   89.3959 O   0  0  0  0  0  0  0  0  0  0  0  0
  124.3723  121.3377   90.4551 C   0  0  0  0  0  0  0  0  0  0  0  0
  125.8389  121.4549   87.1075 C   0  0  0  0  0  0  0  0  0  0  0  0
  127.1372  121.3037   87.5246 O   0  0  0  0  0  0  0  0  0  0  0  0
  128.1677  121.4782   86.5627 C   0  0  0  0  0  0  0  0  0  0  0  0
  125.4497  121.6071   85.7777 C   0  0  0  0  0  0  0  0  0  0  0  0
  124.0905  121.7397   85.4362 C   0  0  0  0  0  0  0  0  0  0  0  0
  123.7282  121.8613   83.6870 S   0  0  0  0  0  6  0  0  0  0  0  0
  122.7721  122.9148   83.4403 O   0  0  0  0  0  0  0  0  0  0  0  0
  125.0040  121.8195   83.0072 O   0  0  0  0  0  0  0  0  0  0  0  0
  122.9808  120.3984   83.3324 N   0  0  0  0  0  0  0  0  0  0  0  0
  121.5185  120.1683   83.3655 C   0  0  0  0  0  0  0  0  0  0  0  0
  121.3241  118.6420   83.3067 C   0  0  0  0  0  0  0  0  0  0  0  0
  120.8731  120.7949   82.1247 C   0  0  0  0  0  0  0  0  0  0  0  0
  120.8587  120.6870   84.6456 C   0  0  0  0  0  0  0  0  0  0  0  0
  116.5363  125.2217   87.7603 H   0  0  0  0  0  0  0  0  0  0  0  0
  117.0892  125.9875   86.2324 H   0  0  0  0  0  0  0  0  0  0  0  0
  115.6384  124.9285   86.2324 H   0  0  0  0  0  0  0  0  0  0  0  0
  119.0077  122.2682   85.9290 H   0  0  0  0  0  0  0  0  0  0  0  0
  121.2172  123.6765   87.3297 H   0  0  0  0  0  0  0  0  0  0  0  0
  120.6675  122.0848   88.0061 H   0  0  0  0  0  0  0  0  0  0  0  0
  121.1846  120.9620   85.9489 H   0  0  0  0  0  0  0  0  0  0  0  0
  121.6315  122.6059   85.1997 H   0  0  0  0  0  0  0  0  0  0  0  0
  122.7476  121.5794   88.5650 H   0  0  0  0  0  0  0  0  0  0  0  0
  124.9000  121.3008   91.4195 H   0  0  0  0  0  0  0  0  0  0  0  0
  123.8056  122.2778   90.3830 H   0  0  0  0  0  0  0  0  0  0  0  0
  123.6800  120.4859   90.3830 H   0  0  0  0  0  0  0  0  0  0  0  0
  129.1261  121.6405   87.0774 H   0  0  0  0  0  0  0  0  0  0  0  0
  128.2374  120.5790   85.9328 H   0  0  0  0  0  0  0  0  0  0  0  0
  127.9375  122.3501   85.9328 H   0  0  0  0  0  0  0  0  0  0  0  0
  126.2134  121.6238   84.9861 H   0  0  0  0  0  0  0  0  0  0  0  0
  123.2753  120.1634   82.3738 H   0  0  0  0  0  0  0  0  0  0  0  0
  121.2729  118.2392   84.3290 H   0  0  0  0  0  0  0  0  0  0  0  0
  120.3894  118.4116   82.7745 H   0  0  0  0  0  0  0  0  0  0  0  0
  122.1713  118.1847   82.7745 H   0  0  0  0  0  0  0  0  0  0  0  0
  120.1163  121.5297   82.4365 H   0  0  0  0  0  0  0  0  0  0  0  0
  121.6456  121.2967   81.5235 H   0  0  0  0  0  0  0  0  0  0  0  0
  120.3943  120.0079   81.5235 H   0  0  0  0  0  0  0  0  0  0  0  0
  121.3824  120.2753   85.5209 H   0  0  0  0  0  0  0  0  0  0  0  0
  120.9148  121.7854   84.6679 H   0  0  0  0  0  0  0  0  0  0  0  0
  119.8046  120.3733   84.6679 H   0  0  0  0  0  0  0  0  0  0  0  0
  1  2  1  0
  2  3  1  0
  3  4  2  0
  3  5  1  0
  5  6  1  0
  6  7  1  0
  7  8  1  0
  8  9  2  0
  9 10  1  0
 10 11  1  0
 11 12  1  0
 10 13  2  0
 13 14  1  0
 14 15  1  0
 13 16  1  0
 16 17  2  0
 17 18  1  0
 18 19  2  0
 18 20  2  0
 18 21  1  0
 21 22  1  0
 22 23  1  0
 22 24  1  0
 22 25  1  0
 17  8  1  0
  1 26  1  0
  1 27  1  0
  1 28  1  0
  5 29  1  0
  6 30  1  0
  6 31  1  0
  7 32  1  0
  7 33  1  0
  9 34  1  0
 12 35  1  0
 12 36  1  0
 12 37  1  0
 15 38  1  0
 15 39  1  0
 15 40  1  0
 16 41  1  0
 21 42  1  0
 23 43  1  0
 23 44  1  0
 23 45  1  0
 24 46  1  0
 24 47  1  0
 24 48  1  0
 25 49  1  0
 25 50  1  0
 25 51  1  0
M  END
>  <loss>  (21) 
0.6820700764656067

>  <score>  (21) 
3.952270984649658

$$$$
SOJQYLKYPWFEBD-UHFFFAOYSA-N
     RDKit          3D

 51 51  0  0  0  0  0  0  0  0999 V2000
  117.0119  123.8752   83.8454 C   0  0  0  0  0  0  0  0  0  0  0  0
  117.6102  123.7403   85.1351 O   0  0  0  0  0  0  0  0  0  0  0  0
  118.8810  123.2752   85.1047 C   0  0  0  0  0  0  0  0  0  0  0  0
  119.5531  123.1024   84.0977 O   0  0  0  0  0  0  0  0  0  0  0  0
  119.3011  123.0402   86.3791 N   0  0  0  0  0  0  0  0  0  0  0  0
  120.5698  122.4126   86.6767 C   0  0  0  0  0  0  0  0  0  0  0  0
  121.7557  123.3201   86.3363 C   0  0  0  0  0  0  0  0  0  0  0  0
  123.0891  122.6364   86.5424 C   0  0  0  0  0  0  0  0  0  0  0  0
  123.4583  122.3313   87.8698 C   0  0  0  0  0  0  0  0  0  0  0  0
  124.6674  121.6909   88.1692 C   0  0  0  0  0  0  0  0  0  0  0  0
  125.0777  121.3624   89.4371 O   0  0  0  0  0  0  0  0  0  0  0  0
  124.2469  121.7425   90.5240 C   0  0  0  0  0  0  0  0  0  0  0  0
  125.5425  121.3397   87.1268 C   0  0  0  0  0  0  0  0  0  0  0  0
  126.7059  120.7137   87.4996 O   0  0  0  0  0  0  0  0  0  0  0  0
  127.7880  120.7236   86.5786 C   0  0  0  0  0  0  0  0  0  0  0  0
  125.1931  121.6354   85.8074 C   0  0  0  0  0  0  0  0  0  0  0  0
  123.9729  122.2677   85.5087 C   0  0  0  0  0  0  0  0  0  0  0  0
  123.6365  122.5970   83.7772 S   0  0  0  0  0  6  0  0  0  0  0  0
  124.8261  122.2820   83.0166 O   0  0  0  0  0  0  0  0  0  0  0  0
  123.0468  123.9147   83.7017 O   0  0  0  0  0  0  0  0  0  0  0  0
  122.4471  121.4788   83.4163 N   0  0  0  0  0  0  0  0  0  0  0  0
  122.6100  120.3240   82.5071 C   0  0  0  0  0  0  0  0  0  0  0  0
  123.7026  119.3638   82.9826 C   0  0  0  0  0  0  0  0  0  0  0  0
  121.2712  119.5623   82.5006 C   0  0  0  0  0  0  0  0  0  0  0  0
  122.8860  120.8168   81.0820 C   0  0  0  0  0  0  0  0  0  0  0  0
  115.9447  124.1159   83.9597 H   0  0  0  0  0  0  0  0  0  0  0  0
  117.5127  124.6830   83.2916 H   0  0  0  0  0  0  0  0  0  0  0  0
  117.1175  122.9307   83.2916 H   0  0  0  0  0  0  0  0  0  0  0  0
  118.6917  123.3203   87.1608 H   0  0  0  0  0  0  0  0  0  0  0  0
  120.6035  122.1724   87.7496 H   0  0  0  0  0  0  0  0  0  0  0  0
  120.6509  121.5044   86.0615 H   0  0  0  0  0  0  0  0  0  0  0  0
  121.6751  123.6248   85.2824 H   0  0  0  0  0  0  0  0  0  0  0  0
  121.7174  124.1865   87.0130 H   0  0  0  0  0  0  0  0  0  0  0  0
  122.7787  122.6035   88.6908 H   0  0  0  0  0  0  0  0  0  0  0  0
  124.7542  121.5104   91.4720 H   0  0  0  0  0  0  0  0  0  0  0  0
  124.0451  122.8225   90.4710 H   0  0  0  0  0  0  0  0  0  0  0  0
  123.2977  121.1891   90.4710 H   0  0  0  0  0  0  0  0  0  0  0  0
  128.7394  120.7322   87.1307 H   0  0  0  0  0  0  0  0  0  0  0  0
  127.7393  119.8249   85.9460 H   0  0  0  0  0  0  0  0  0  0  0  0
  127.7230  121.6212   85.9460 H   0  0  0  0  0  0  0  0  0  0  0  0
  125.8813  121.3704   84.9912 H   0  0  0  0  0  0  0  0  0  0  0  0
  122.1658  121.0766   84.3218 H   0  0  0  0  0  0  0  0  0  0  0  0
  123.7223  119.3465   84.0823 H   0  0  0  0  0  0  0  0  0  0  0  0
  123.4925  118.3527   82.6037 H   0  0  0  0  0  0  0  0  0  0  0  0
  124.6783  119.7020   82.6037 H   0  0  0  0  0  0  0  0  0  0  0  0
  120.9487  119.3788   83.5362 H   0  0  0  0  0  0  0  0  0  0  0  0
  120.5103  120.1627   81.9805 H   0  0  0  0  0  0  0  0  0  0  0  0
  121.3985  118.6014   81.9805 H   0  0  0  0  0  0  0  0  0  0  0  0
  123.4231  121.7759   81.1233 H   0  0  0  0  0  0  0  0  0  0  0  0
  123.5001  120.0753   80.5500 H   0  0  0  0  0  0  0  0  0  0  0  0
  121.9329  120.9529   80.5500 H   0  0  0  0  0  0  0  0  0  0  0  0
  1  2  1  0
  2  3  1  0
  3  4  2  0
  3  5  1  0
  5  6  1  0
  6  7  1  0
  7  8  1  0
  8  9  2  0
  9 10  1  0
 10 11  1  0
 11 12  1  0
 10 13  2  0
 13 14  1  0
 14 15  1  0
 13 16  1  0
 16 17  2  0
 17 18  1  0
 18 19  2  0
 18 20  2  0
 18 21  1  0
 21 22  1  0
 22 23  1  0
 22 24  1  0
 22 25  1  0
 17  8  1  0
  1 26  1  0
  1 27  1  0
  1 28  1  0
  5 29  1  0
  6 30  1  0
  6 31  1  0
  7 32  1  0
  7 33  1  0
  9 34  1  0
 12 35  1  0
 12 36  1  0
 12 37  1  0
 15 38  1  0
 15 39  1  0
 15 40  1  0
 16 41  1  0
 21 42  1  0
 23 43  1  0
 23 44  1  0
 23 45  1  0
 24 46  1  0
 24 47  1  0
 24 48  1  0
 25 49  1  0
 25 50  1  0
 25 51  1  0
M  END
>  <loss>  (22) 
0.4900457262992859

>  <score>  (22) 
2.2525768280029297

$$$$
SOJQYLKYPWFEBD-UHFFFAOYSA-N
     RDKit          3D

 51 51  0  0  0  0  0  0  0  0999 V2000
  116.9087  123.6987   84.1634 C   0  0  0  0  0  0  0  0  0  0  0  0
  117.4717  123.3911   85.4393 O   0  0  0  0  0  0  0  0  0  0  0  0
  118.8215  123.4833   85.4803 C   0  0  0  0  0  0  0  0  0  0  0  0
  119.5228  124.0512   84.6548 O   0  0  0  0  0  0  0  0  0  0  0  0
  119.2784  122.8520   86.5976 N   0  0  0  0  0  0  0  0  0  0  0  0
  120.5663  122.1957   86.6485 C   0  0  0  0  0  0  0  0  0  0  0  0
  121.7154  123.1551   86.3242 C   0  0  0  0  0  0  0  0  0  0  0  0
  123.0748  122.5195   86.5143 C   0  0  0  0  0  0  0  0  0  0  0  0
  123.4631  122.2121   87.8357 C   0  0  0  0  0  0  0  0  0  0  0  0
  124.6972  121.6140   88.1203 C   0  0  0  0  0  0  0  0  0  0  0  0
  125.1271  121.2855   89.3818 O   0  0  0  0  0  0  0  0  0  0  0  0
  124.4080  121.8118   90.4872 C   0  0  0  0  0  0  0  0  0  0  0  0
  125.5786  121.3089   87.0688 C   0  0  0  0  0  0  0  0  0  0  0  0
  126.7670  120.7227   87.4273 O   0  0  0  0  0  0  0  0  0  0  0  0
  127.8845  120.9128   86.5704 C   0  0  0  0  0  0  0  0  0  0  0  0
  125.2105  121.6077   85.7552 C   0  0  0  0  0  0  0  0  0  0  0  0
  123.9656  122.1972   85.4712 C   0  0  0  0  0  0  0  0  0  0  0  0
  123.6068  122.5351   83.7459 S   0  0  0  0  0  6  0  0  0  0  0  0
  124.7279  122.0807   82.9524 O   0  0  0  0  0  0  0  0  0  0  0  0
  123.1612  123.9080   83.6652 O   0  0  0  0  0  0  0  0  0  0  0  0
  122.2912  121.5480   83.4455 N   0  0  0  0  0  0  0  0  0  0  0  0
  121.8735  121.0663   82.1112 C   0  0  0  0  0  0  0  0  0  0  0  0
  123.0678  120.8114   81.1890 C   0  0  0  0  0  0  0  0  0  0  0  0
  121.1375  119.7300   82.3238 C   0  0  0  0  0  0  0  0  0  0  0  0
  120.8890  122.0591   81.4827 C   0  0  0  0  0  0  0  0  0  0  0  0
  115.9510  124.2219   84.3017 H   0  0  0  0  0  0  0  0  0  0  0  0
  117.6013  124.3437   83.6029 H   0  0  0  0  0  0  0  0  0  0  0  0
  116.7401  122.7674   83.6029 H   0  0  0  0  0  0  0  0  0  0  0  0
  118.6839  122.8417   87.4386 H   0  0  0  0  0  0  0  0  0  0  0  0
  120.7178  121.7898   87.6596 H   0  0  0  0  0  0  0  0  0  0  0  0
  120.5691  121.3963   85.8929 H   0  0  0  0  0  0  0  0  0  0  0  0
  121.6205  123.4772   85.2767 H   0  0  0  0  0  0  0  0  0  0  0  0
  121.6453  124.0057   87.0181 H   0  0  0  0  0  0  0  0  0  0  0  0
  122.7787  122.4483   88.6638 H   0  0  0  0  0  0  0  0  0  0  0  0
  124.8739  121.4708   91.4235 H   0  0  0  0  0  0  0  0  0  0  0  0
  124.4270  122.9109   90.4472 H   0  0  0  0  0  0  0  0  0  0  0  0
  123.3661  121.4614   90.4472 H   0  0  0  0  0  0  0  0  0  0  0  0
  128.7894  121.0667   87.1766 H   0  0  0  0  0  0  0  0  0  0  0  0
  128.0152  120.0240   85.9356 H   0  0  0  0  0  0  0  0  0  0  0  0
  127.7140  121.7949   85.9356 H   0  0  0  0  0  0  0  0  0  0  0  0
  125.9033  121.3789   84.9319 H   0  0  0  0  0  0  0  0  0  0  0  0
  122.4533  120.6983   84.0048 H   0  0  0  0  0  0  0  0  0  0  0  0
  123.9652  120.6198   81.7957 H   0  0  0  0  0  0  0  0  0  0  0  0
  122.8609  119.9372   80.5543 H   0  0  0  0  0  0  0  0  0  0  0  0
  123.2358  121.6939   80.5543 H   0  0  0  0  0  0  0  0  0  0  0  0
  121.0313  119.5373   83.4016 H   0  0  0  0  0  0  0  0  0  0  0  0
  120.1410  119.7825   81.8608 H   0  0  0  0  0  0  0  0  0  0  0  0
  121.7144  118.9159   81.8608 H   0  0  0  0  0  0  0  0  0  0  0  0
  120.3542  122.5985   82.2783 H   0  0  0  0  0  0  0  0  0  0  0  0
  121.4410  122.7781   80.8594 H   0  0  0  0  0  0  0  0  0  0  0  0
  120.1655  121.5133   80.8594 H   0  0  0  0  0  0  0  0  0  0  0  0
  1  2  1  0
  2  3  1  0
  3  4  2  0
  3  5  1  0
  5  6  1  0
  6  7  1  0
  7  8  1  0
  8  9  2  0
  9 10  1  0
 10 11  1  0
 11 12  1  0
 10 13  2  0
 13 14  1  0
 14 15  1  0
 13 16  1  0
 16 17  2  0
 17 18  1  0
 18 19  2  0
 18 20  2  0
 18 21  1  0
 21 22  1  0
 22 23  1  0
 22 24  1  0
 22 25  1  0
 17  8  1  0
  1 26  1  0
  1 27  1  0
  1 28  1  0
  5 29  1  0
  6 30  1  0
  6 31  1  0
  7 32  1  0
  7 33  1  0
  9 34  1  0
 12 35  1  0
 12 36  1  0
 12 37  1  0
 15 38  1  0
 15 39  1  0
 15 40  1  0
 16 41  1  0
 21 42  1  0
 23 43  1  0
 23 44  1  0
 23 45  1  0
 24 46  1  0
 24 47  1  0
 24 48  1  0
 25 49  1  0
 25 50  1  0
 25 51  1  0
M  END
>  <loss>  (23) 
0.47972849011421204

>  <score>  (23) 
2.1767940521240234

$$$$
SOJQYLKYPWFEBD-UHFFFAOYSA-N
     RDKit          3D

 51 51  0  0  0  0  0  0  0  0999 V2000
  116.9371  123.5234   83.9092 C   0  0  0  0  0  0  0  0  0  0  0  0
  117.5530  123.6216   85.1935 O   0  0  0  0  0  0  0  0  0  0  0  0
  118.9047  123.6971   85.1489 C   0  0  0  0  0  0  0  0  0  0  0  0
  119.5741  123.8743   84.1427 O   0  0  0  0  0  0  0  0  0  0  0  0
  119.3992  123.5633   86.4106 N   0  0  0  0  0  0  0  0  0  0  0  0
  120.8218  123.5266   86.6668 C   0  0  0  0  0  0  0  0  0  0  0  0
  121.4013  122.1202   86.4776 C   0  0  0  0  0  0  0  0  0  0  0  0
  122.8822  121.9239   86.7457 C   0  0  0  0  0  0  0  0  0  0  0  0
  123.3579  121.7054   88.0551 C   0  0  0  0  0  0  0  0  0  0  0  0
  124.7250  121.5521   88.3330 C   0  0  0  0  0  0  0  0  0  0  0  0
  125.2413  121.3360   89.5870 O   0  0  0  0  0  0  0  0  0  0  0  0
  124.3728  121.4883   90.7006 C   0  0  0  0  0  0  0  0  0  0  0  0
  125.6599  121.6125   87.2866 C   0  0  0  0  0  0  0  0  0  0  0  0
  126.9765  121.4564   87.6395 O   0  0  0  0  0  0  0  0  0  0  0  0
  127.9303  121.3131   86.5968 C   0  0  0  0  0  0  0  0  0  0  0  0
  125.2107  121.8128   85.9823 C   0  0  0  0  0  0  0  0  0  0  0  0
  123.8366  121.9467   85.7069 C   0  0  0  0  0  0  0  0  0  0  0  0
  123.3958  122.1329   83.9816 S   0  0  0  0  0  6  0  0  0  0  0  0
  122.1362  122.8269   83.8532 O   0  0  0  0  0  0  0  0  0  0  0  0
  124.5892  122.5952   83.3081 O   0  0  0  0  0  0  0  0  0  0  0  0
  123.1656  120.5531   83.4566 N   0  0  0  0  0  0  0  0  0  0  0  0
  122.3824  120.1671   82.2608 C   0  0  0  0  0  0  0  0  0  0  0  0
  122.2835  118.6308   82.2917 C   0  0  0  0  0  0  0  0  0  0  0  0
  123.1389  120.5863   80.9956 C   0  0  0  0  0  0  0  0  0  0  0  0
  120.9627  120.7395   82.2635 C   0  0  0  0  0  0  0  0  0  0  0  0
  115.8577  123.3512   84.0324 H   0  0  0  0  0  0  0  0  0  0  0  0
  117.0981  124.4585   83.3529 H   0  0  0  0  0  0  0  0  0  0  0  0
  117.3810  122.6847   83.3529 H   0  0  0  0  0  0  0  0  0  0  0  0
  118.7439  123.4864   87.2016 H   0  0  0  0  0  0  0  0  0  0  0  0
  121.3259  124.2151   85.9726 H   0  0  0  0  0  0  0  0  0  0  0  0
  120.9874  123.8253   87.7124 H   0  0  0  0  0  0  0  0  0  0  0  0
  120.8534  121.4460   87.1523 H   0  0  0  0  0  0  0  0  0  0  0  0
  121.2842  121.9142   85.4034 H   0  0  0  0  0  0  0  0  0  0  0  0
  122.6359  121.6535   88.8834 H   0  0  0  0  0  0  0  0  0  0  0  0
  124.9495  121.3872   91.6319 H   0  0  0  0  0  0  0  0  0  0  0  0
  123.9032  122.4824   90.6662 H   0  0  0  0  0  0  0  0  0  0  0  0
  123.5931  120.7131   90.6662 H   0  0  0  0  0  0  0  0  0  0  0  0
  128.9294  121.1630   87.0318 H   0  0  0  0  0  0  0  0  0  0  0  0
  127.6666  120.4445   85.9755 H   0  0  0  0  0  0  0  0  0  0  0  0
  127.9336  122.2208   85.9755 H   0  0  0  0  0  0  0  0  0  0  0  0
  125.9381  121.8667   85.1590 H   0  0  0  0  0  0  0  0  0  0  0  0
  124.1105  120.1735   83.3017 H   0  0  0  0  0  0  0  0  0  0  0  0
  122.2613  118.2858   83.3360 H   0  0  0  0  0  0  0  0  0  0  0  0
  121.3630  118.3123   81.7807 H   0  0  0  0  0  0  0  0  0  0  0  0
  123.1556  118.1969   81.7807 H   0  0  0  0  0  0  0  0  0  0  0  0
  124.0688  121.1016   81.2782 H   0  0  0  0  0  0  0  0  0  0  0  0
  123.3808  119.6936   80.4003 H   0  0  0  0  0  0  0  0  0  0  0  0
  122.5102  121.2648   80.4003 H   0  0  0  0  0  0  0  0  0  0  0  0
  120.6244  120.8759   83.3012 H   0  0  0  0  0  0  0  0  0  0  0  0
  120.9577  121.7099   81.7456 H   0  0  0  0  0  0  0  0  0  0  0  0
  120.2860  120.0440   81.7456 H   0  0  0  0  0  0  0  0  0  0  0  0
  1  2  1  0
  2  3  1  0
  3  4  2  0
  3  5  1  0
  5  6  1  0
  6  7  1  0
  7  8  1  0
  8  9  2  0
  9 10  1  0
 10 11  1  0
 11 12  1  0
 10 13  2  0
 13 14  1  0
 14 15  1  0
 13 16  1  0
 16 17  2  0
 17 18  1  0
 18 19  2  0
 18 20  2  0
 18 21  1  0
 21 22  1  0
 22 23  1  0
 22 24  1  0
 22 25  1  0
 17  8  1  0
  1 26  1  0
  1 27  1  0
  1 28  1  0
  5 29  1  0
  6 30  1  0
  6 31  1  0
  7 32  1  0
  7 33  1  0
  9 34  1  0
 12 35  1  0
 12 36  1  0
 12 37  1  0
 15 38  1  0
 15 39  1  0
 15 40  1  0
 16 41  1  0
 21 42  1  0
 23 43  1  0
 23 44  1  0
 23 45  1  0
 24 46  1  0
 24 47  1  0
 24 48  1  0
 25 49  1  0
 25 50  1  0
 25 51  1  0
M  END
>  <loss>  (24) 
0.5101630091667175

>  <score>  (24) 
0.6821603775024414

$$$$
SOJQYLKYPWFEBD-UHFFFAOYSA-N
     RDKit          3D

 51 51  0  0  0  0  0  0  0  0999 V2000
  116.9296  123.9262   83.2455 C   0  0  0  0  0  0  0  0  0  0  0  0
  117.4468  123.6173   84.5403 O   0  0  0  0  0  0  0  0  0  0  0  0
  118.7143  123.1428   84.5262 C   0  0  0  0  0  0  0  0  0  0  0  0
  119.4311  123.0530   83.5394 O   0  0  0  0  0  0  0  0  0  0  0  0
  119.0733  122.7905   85.7922 N   0  0  0  0  0  0  0  0  0  0  0  0
  120.3476  122.1782   86.0975 C   0  0  0  0  0  0  0  0  0  0  0  0
  121.5087  123.1689   85.9692 C   0  0  0  0  0  0  0  0  0  0  0  0
  122.8459  122.5433   86.2984 C   0  0  0  0  0  0  0  0  0  0  0  0
  123.1014  122.2453   87.6539 C   0  0  0  0  0  0  0  0  0  0  0  0
  124.3043  121.6570   88.0644 C   0  0  0  0  0  0  0  0  0  0  0  0
  124.6074  121.3377   89.3645 O   0  0  0  0  0  0  0  0  0  0  0  0
  123.6432  121.6340   90.3638 C   0  0  0  0  0  0  0  0  0  0  0  0
  125.2887  121.3523   87.1085 C   0  0  0  0  0  0  0  0  0  0  0  0
  126.4387  120.7759   87.5878 O   0  0  0  0  0  0  0  0  0  0  0  0
  127.6014  120.8405   86.7735 C   0  0  0  0  0  0  0  0  0  0  0  0
  125.0526  121.6419   85.7629 C   0  0  0  0  0  0  0  0  0  0  0  0
  123.8390  122.2217   85.3519 C   0  0  0  0  0  0  0  0  0  0  0  0
  123.6532  122.5483   83.5974 S   0  0  0  0  0  6  0  0  0  0  0  0
  124.8856  122.1806   82.9350 O   0  0  0  0  0  0  0  0  0  0  0  0
  123.1235  123.8871   83.4678 O   0  0  0  0  0  0  0  0  0  0  0  0
  122.4528  121.4738   83.1502 N   0  0  0  0  0  0  0  0  0  0  0  0
  122.5772  120.4483   82.0919 C   0  0  0  0  0  0  0  0  0  0  0  0
  123.8566  119.6213   82.2363 C   0  0  0  0  0  0  0  0  0  0  0  0
  121.3730  119.4992   82.2393 C   0  0  0  0  0  0  0  0  0  0  0  0
  122.4973  121.1106   80.7117 C   0  0  0  0  0  0  0  0  0  0  0  0
  115.9896  124.4878   83.3505 H   0  0  0  0  0  0  0  0  0  0  0  0
  117.6610  124.5355   82.6943 H   0  0  0  0  0  0  0  0  0  0  0  0
  116.7399  122.9934   82.6943 H   0  0  0  0  0  0  0  0  0  0  0  0
  118.4118  122.9670   86.5617 H   0  0  0  0  0  0  0  0  0  0  0  0
  120.3196  121.7963   87.1288 H   0  0  0  0  0  0  0  0  0  0  0  0
  120.5145  121.3655   85.3753 H   0  0  0  0  0  0  0  0  0  0  0  0
  121.5398  123.5431   84.9353 H   0  0  0  0  0  0  0  0  0  0  0  0
  121.3345  123.9816   86.6897 H   0  0  0  0  0  0  0  0  0  0  0  0
  122.3359  122.4812   88.4077 H   0  0  0  0  0  0  0  0  0  0  0  0
  124.0919  121.4962   91.3586 H   0  0  0  0  0  0  0  0  0  0  0  0
  123.3092  122.6763   90.2534 H   0  0  0  0  0  0  0  0  0  0  0  0
  122.7815  120.9592   90.2534 H   0  0  0  0  0  0  0  0  0  0  0  0
  128.4948  120.8901   87.4132 H   0  0  0  0  0  0  0  0  0  0  0  0
  127.6545  119.9439   86.1384 H   0  0  0  0  0  0  0  0  0  0  0  0
  127.5549  121.7374   86.1384 H   0  0  0  0  0  0  0  0  0  0  0  0
  125.8260  121.4135   85.0146 H   0  0  0  0  0  0  0  0  0  0  0  0
  122.2168  120.9546   84.0079 H   0  0  0  0  0  0  0  0  0  0  0  0
  124.0810  119.4762   83.3034 H   0  0  0  0  0  0  0  0  0  0  0  0
  123.7167  118.6423   81.7547 H   0  0  0  0  0  0  0  0  0  0  0  0
  124.6918  120.1508   81.7547 H   0  0  0  0  0  0  0  0  0  0  0  0
  121.1643  119.3347   83.3067 H   0  0  0  0  0  0  0  0  0  0  0  0
  120.4914  119.9480   81.7582 H   0  0  0  0  0  0  0  0  0  0  0  0
  121.6033  118.5372   81.7582 H   0  0  0  0  0  0  0  0  0  0  0  0
  122.3663  122.1960   80.8329 H   0  0  0  0  0  0  0  0  0  0  0  0
  123.4258  120.9131   80.1559 H   0  0  0  0  0  0  0  0  0  0  0  0
  121.6425  120.6979   80.1559 H   0  0  0  0  0  0  0  0  0  0  0  0
  1  2  1  0
  2  3  1  0
  3  4  2  0
  3  5  1  0
  5  6  1  0
  6  7  1  0
  7  8  1  0
  8  9  2  0
  9 10  1  0
 10 11  1  0
 11 12  1  0
 10 13  2  0
 13 14  1  0
 14 15  1  0
 13 16  1  0
 16 17  2  0
 17 18  1  0
 18 19  2  0
 18 20  2  0
 18 21  1  0
 21 22  1  0
 22 23  1  0
 22 24  1  0
 22 25  1  0
 17  8  1  0
  1 26  1  0
  1 27  1  0
  1 28  1  0
  5 29  1  0
  6 30  1  0
  6 31  1  0
  7 32  1  0
  7 33  1  0
  9 34  1  0
 12 35  1  0
 12 36  1  0
 12 37  1  0
 15 38  1  0
 15 39  1  0
 15 40  1  0
 16 41  1  0
 21 42  1  0
 23 43  1  0
 23 44  1  0
 23 45  1  0
 24 46  1  0
 24 47  1  0
 24 48  1  0
 25 49  1  0
 25 50  1  0
 25 51  1  0
M  END
>  <loss>  (25) 
0.5293540954589844

>  <score>  (25) 
0.6828382015228271

$$$$
