UFTYCEAGKXXBJN-UHFFFAOYSA-N
     RDKit          3D

 25 25  0  0  0  0  0  0  0  0999 V2000
  117.1025  122.0546   82.5521 O   0  0  0  0  0  0  0  0  0  0  0  0
  117.6424  123.2909   83.0012 C   0  0  0  0  0  0  0  0  0  0  0  0
  117.8337  123.2754   84.5163 C   0  0  0  0  0  0  0  0  0  0  0  0
  119.0497  123.9595   84.9335 N   0  0  0  0  0  0  0  0  0  0  0  0
  120.3229  123.4499   84.9601 C   0  0  0  0  0  0  0  0  0  0  0  0
  121.3367  123.9471   83.7314 S   0  0  0  0  0  0  0  0  0  0  0  0
  120.5944  122.6237   86.0221 N   0  0  0  0  0  0  0  0  0  0  0  0
  121.8047  122.3351   86.6914 C   0  0  0  0  0  0  0  0  0  0  0  0
  121.7119  121.9957   88.0477 C   0  0  0  0  0  0  0  0  0  0  0  0
  122.8549  121.6756   88.7864 C   0  0  0  0  0  0  0  0  0  0  0  0
  124.1072  121.6727   88.1719 C   0  0  0  0  0  0  0  0  0  0  0  0
  125.4782  121.2666   89.1402 Cl  0  0  0  0  0  0  0  0  0  0  0  0
  124.2078  121.9815   86.8128 C   0  0  0  0  0  0  0  0  0  0  0  0
  125.7206  121.9650   85.9748 Cl  0  0  0  0  0  0  0  0  0  0  0  0
  123.0583  122.3038   86.0771 C   0  0  0  0  0  0  0  0  0  0  0  0
  116.8593  121.4975   83.3335 H   0  0  0  0  0  0  0  0  0  0  0  0
  118.6152  123.4582   82.5157 H   0  0  0  0  0  0  0  0  0  0  0  0
  116.9429  124.0988   82.7403 H   0  0  0  0  0  0  0  0  0  0  0  0
  116.9714  123.7718   84.9855 H   0  0  0  0  0  0  0  0  0  0  0  0
  117.9173  122.2248   84.8311 H   0  0  0  0  0  0  0  0  0  0  0  0
  118.9415  124.9358   85.2435 H   0  0  0  0  0  0  0  0  0  0  0  0
  119.7728  122.1278   86.3961 H   0  0  0  0  0  0  0  0  0  0  0  0
  120.7270  121.9810   88.5375 H   0  0  0  0  0  0  0  0  0  0  0  0
  122.7665  121.4256   89.8540 H   0  0  0  0  0  0  0  0  0  0  0  0
  123.1451  122.5343   85.0051 H   0  0  0  0  0  0  0  0  0  0  0  0
  1  2  1  0
  2  3  1  0
  3  4  1  0
  4  5  1  0
  5  6  2  0
  5  7  1  0
  7  8  1  0
  8  9  2  0
  9 10  1  0
 10 11  2  0
 11 12  1  0
 11 13  1  0
 13 14  1  0
 13 15  2  0
 15  8  1  0
  1 16  1  0
  2 17  1  0
  2 18  1  0
  3 19  1  0
  3 20  1  0
  4 21  1  0
  7 22  1  0
  9 23  1  0
 10 24  1  0
 15 25  1  0
M  END
>  <loss>  (1) 
0.45174217224121094

>  <score>  (1) 
3.514423370361328

$$$$
UFTYCEAGKXXBJN-UHFFFAOYSA-N
     RDKit          3D

 25 25  0  0  0  0  0  0  0  0999 V2000
  117.7143  123.0555   82.1957 O   0  0  0  0  0  0  0  0  0  0  0  0
  117.2833  123.3306   83.5239 C   0  0  0  0  0  0  0  0  0  0  0  0
  118.3016  122.8022   84.5355 C   0  0  0  0  0  0  0  0  0  0  0  0
  119.6839  123.0892   84.1612 N   0  0  0  0  0  0  0  0  0  0  0  0
  120.6886  123.5634   84.9972 C   0  0  0  0  0  0  0  0  0  0  0  0
  121.5380  124.9765   84.7245 S   0  0  0  0  0  0  0  0  0  0  0  0
  120.8972  122.6440   86.0189 N   0  0  0  0  0  0  0  0  0  0  0  0
  122.0655  122.3119   86.7399 C   0  0  0  0  0  0  0  0  0  0  0  0
  123.2679  122.2799   86.0223 C   0  0  0  0  0  0  0  0  0  0  0  0
  124.4681  121.9380   86.6527 C   0  0  0  0  0  0  0  0  0  0  0  0
  124.4772  121.6038   88.0073 C   0  0  0  0  0  0  0  0  0  0  0  0
  125.9925  121.1886   88.7239 Cl  0  0  0  0  0  0  0  0  0  0  0  0
  123.2778  121.6033   88.7247 C   0  0  0  0  0  0  0  0  0  0  0  0
  123.2047  121.1656   90.3961 Cl  0  0  0  0  0  0  0  0  0  0  0  0
  122.0774  121.9491   88.0884 C   0  0  0  0  0  0  0  0  0  0  0  0
  118.5484  122.5229   82.2231 H   0  0  0  0  0  0  0  0  0  0  0  0
  117.1758  124.4178   83.6521 H   0  0  0  0  0  0  0  0  0  0  0  0
  116.3179  122.8322   83.6961 H   0  0  0  0  0  0  0  0  0  0  0  0
  118.0994  123.2678   85.5114 H   0  0  0  0  0  0  0  0  0  0  0  0
  118.1918  121.7083   84.5701 H   0  0  0  0  0  0  0  0  0  0  0  0
  119.9406  122.9234   83.1776 H   0  0  0  0  0  0  0  0  0  0  0  0
  120.0580  122.1156   86.2971 H   0  0  0  0  0  0  0  0  0  0  0  0
  123.2680  122.5266   84.9503 H   0  0  0  0  0  0  0  0  0  0  0  0
  125.4070  121.9325   86.0796 H   0  0  0  0  0  0  0  0  0  0  0  0
  121.1358  121.9344   88.6568 H   0  0  0  0  0  0  0  0  0  0  0  0
  1  2  1  0
  2  3  1  0
  3  4  1  0
  4  5  1  0
  5  6  2  0
  5  7  1  0
  7  8  1  0
  8  9  2  0
  9 10  1  0
 10 11  2  0
 11 12  1  0
 11 13  1  0
 13 14  1  0
 13 15  2  0
 15  8  1  0
  1 16  1  0
  2 17  1  0
  2 18  1  0
  3 19  1  0
  3 20  1  0
  4 21  1  0
  7 22  1  0
  9 23  1  0
 10 24  1  0
 15 25  1  0
M  END
>  <loss>  (2) 
0.5147859454154968

>  <score>  (2) 
3.51774001121521

$$$$
UFTYCEAGKXXBJN-UHFFFAOYSA-N
     RDKit          3D

 25 25  0  0  0  0  0  0  0  0999 V2000
  118.0240  122.3879   82.2317 O   0  0  0  0  0  0  0  0  0  0  0  0
  117.7984  123.4242   83.1789 C   0  0  0  0  0  0  0  0  0  0  0  0
  118.2222  122.9753   84.5755 C   0  0  0  0  0  0  0  0  0  0  0  0
  119.2929  123.7926   85.1286 N   0  0  0  0  0  0  0  0  0  0  0  0
  120.6409  123.5439   85.0741 C   0  0  0  0  0  0  0  0  0  0  0  0
  121.5498  124.6236   84.1835 S   0  0  0  0  0  0  0  0  0  0  0  0
  121.0557  122.4499   85.7922 N   0  0  0  0  0  0  0  0  0  0  0  0
  122.2490  122.2013   86.5065 C   0  0  0  0  0  0  0  0  0  0  0  0
  123.5246  122.2262   85.9418 C   0  0  0  0  0  0  0  0  0  0  0  0
  124.6550  121.9415   86.7179 C   0  0  0  0  0  0  0  0  0  0  0  0
  124.5207  121.6119   88.0667 C   0  0  0  0  0  0  0  0  0  0  0  0
  125.9562  121.2698   88.9627 Cl  0  0  0  0  0  0  0  0  0  0  0  0
  123.2468  121.5579   88.6359 C   0  0  0  0  0  0  0  0  0  0  0  0
  122.9899  121.1416   90.2939 Cl  0  0  0  0  0  0  0  0  0  0  0  0
  122.1192  121.8434   87.8554 C   0  0  0  0  0  0  0  0  0  0  0  0
  118.2086  121.5399   82.7080 H   0  0  0  0  0  0  0  0  0  0  0  0
  118.3824  124.3108   82.8911 H   0  0  0  0  0  0  0  0  0  0  0  0
  116.7251  123.6647   83.1934 H   0  0  0  0  0  0  0  0  0  0  0  0
  117.3511  123.0373   85.2443 H   0  0  0  0  0  0  0  0  0  0  0  0
  118.5997  121.9455   84.4928 H   0  0  0  0  0  0  0  0  0  0  0  0
  119.0061  124.6539   85.6152 H   0  0  0  0  0  0  0  0  0  0  0  0
  120.3782  121.6744   85.8140 H   0  0  0  0  0  0  0  0  0  0  0  0
  123.6437  122.4720   84.8762 H   0  0  0  0  0  0  0  0  0  0  0  0
  125.6550  121.9780   86.2611 H   0  0  0  0  0  0  0  0  0  0  0  0
  121.1180  121.7859   88.3074 H   0  0  0  0  0  0  0  0  0  0  0  0
  1  2  1  0
  2  3  1  0
  3  4  1  0
  4  5  1  0
  5  6  2  0
  5  7  1  0
  7  8  1  0
  8  9  2  0
  9 10  1  0
 10 11  2  0
 11 12  1  0
 11 13  1  0
 13 14  1  0
 13 15  2  0
 15  8  1  0
  1 16  1  0
  2 17  1  0
  2 18  1  0
  3 19  1  0
  3 20  1  0
  4 21  1  0
  7 22  1  0
  9 23  1  0
 10 24  1  0
 15 25  1  0
M  END
>  <loss>  (3) 
0.4996345341205597

>  <score>  (3) 
3.4359192848205566

$$$$
UFTYCEAGKXXBJN-UHFFFAOYSA-N
     RDKit          3D

 25 25  0  0  0  0  0  0  0  0999 V2000
  116.8420  121.9539   82.8010 O   0  0  0  0  0  0  0  0  0  0  0  0
  117.6645  123.0888   83.0407 C   0  0  0  0  0  0  0  0  0  0  0  0
  117.7858  123.3560   84.5392 C   0  0  0  0  0  0  0  0  0  0  0  0
  119.0432  123.9974   84.8965 N   0  0  0  0  0  0  0  0  0  0  0  0
  120.2769  123.4068   85.0011 C   0  0  0  0  0  0  0  0  0  0  0  0
  121.2839  123.5746   83.6809 S   0  0  0  0  0  0  0  0  0  0  0  0
  120.5190  122.7835   86.2000 N   0  0  0  0  0  0  0  0  0  0  0  0
  121.7276  122.4154   86.8322 C   0  0  0  0  0  0  0  0  0  0  0  0
  122.9885  122.5233   86.2445 C   0  0  0  0  0  0  0  0  0  0  0  0
  124.1354  122.1100   86.9336 C   0  0  0  0  0  0  0  0  0  0  0  0
  124.0325  121.5679   88.2148 C   0  0  0  0  0  0  0  0  0  0  0  0
  125.4870  121.0768   89.0047 Cl  0  0  0  0  0  0  0  0  0  0  0  0
  122.7733  121.4307   88.8023 C   0  0  0  0  0  0  0  0  0  0  0  0
  122.5548  120.7538   90.3778 Cl  0  0  0  0  0  0  0  0  0  0  0  0
  121.6289  121.8454   88.1089 C   0  0  0  0  0  0  0  0  0  0  0  0
  116.5588  121.5631   83.6654 H   0  0  0  0  0  0  0  0  0  0  0  0
  118.6656  122.9046   82.6238 H   0  0  0  0  0  0  0  0  0  0  0  0
  117.2081  123.9663   82.5592 H   0  0  0  0  0  0  0  0  0  0  0  0
  116.9570  124.0100   84.8481 H   0  0  0  0  0  0  0  0  0  0  0  0
  117.7511  122.3842   85.0534 H   0  0  0  0  0  0  0  0  0  0  0  0
  119.0017  125.0077   85.0927 H   0  0  0  0  0  0  0  0  0  0  0  0
  119.6707  122.5418   86.7319 H   0  0  0  0  0  0  0  0  0  0  0  0
  123.0825  122.9370   85.2297 H   0  0  0  0  0  0  0  0  0  0  0  0
  125.1236  122.2135   86.4617 H   0  0  0  0  0  0  0  0  0  0  0  0
  120.6391  121.7219   88.5727 H   0  0  0  0  0  0  0  0  0  0  0  0
  1  2  1  0
  2  3  1  0
  3  4  1  0
  4  5  1  0
  5  6  2  0
  5  7  1  0
  7  8  1  0
  8  9  2  0
  9 10  1  0
 10 11  2  0
 11 12  1  0
 11 13  1  0
 13 14  1  0
 13 15  2  0
 15  8  1  0
  1 16  1  0
  2 17  1  0
  2 18  1  0
  3 19  1  0
  3 20  1  0
  4 21  1  0
  7 22  1  0
  9 23  1  0
 10 24  1  0
 15 25  1  0
M  END
>  <loss>  (4) 
0.49226558208465576

>  <score>  (4) 
3.35566782951355

$$$$
UFTYCEAGKXXBJN-UHFFFAOYSA-N
     RDKit          3D

 25 25  0  0  0  0  0  0  0  0999 V2000
  116.9699  121.9199   82.5046 O   0  0  0  0  0  0  0  0  0  0  0  0
  116.6848  122.8247   83.5727 C   0  0  0  0  0  0  0  0  0  0  0  0
  117.8901  123.7237   83.8492 C   0  0  0  0  0  0  0  0  0  0  0  0
  118.9236  123.0415   84.6235 N   0  0  0  0  0  0  0  0  0  0  0  0
  120.2355  123.4048   84.7974 C   0  0  0  0  0  0  0  0  0  0  0  0
  121.0593  123.8476   83.4161 S   0  0  0  0  0  0  0  0  0  0  0  0
  120.6705  123.3906   86.0995 N   0  0  0  0  0  0  0  0  0  0  0  0
  121.7926  122.7932   86.7133 C   0  0  0  0  0  0  0  0  0  0  0  0
  121.6005  122.2818   88.0042 C   0  0  0  0  0  0  0  0  0  0  0  0
  122.6448  121.6571   88.6919 C   0  0  0  0  0  0  0  0  0  0  0  0
  123.8948  121.5201   88.0887 C   0  0  0  0  0  0  0  0  0  0  0  0
  125.1428  120.7377   88.9903 Cl  0  0  0  0  0  0  0  0  0  0  0  0
  124.0899  122.0024   86.7914 C   0  0  0  0  0  0  0  0  0  0  0  0
  125.6021  121.8398   85.9674 Cl  0  0  0  0  0  0  0  0  0  0  0  0
  123.0390  122.6299   86.1070 C   0  0  0  0  0  0  0  0  0  0  0  0
  117.2456  121.0453   82.8777 H   0  0  0  0  0  0  0  0  0  0  0  0
  115.8226  123.4498   83.2972 H   0  0  0  0  0  0  0  0  0  0  0  0
  116.4582  122.2446   84.4795 H   0  0  0  0  0  0  0  0  0  0  0  0
  118.3207  124.0435   82.8888 H   0  0  0  0  0  0  0  0  0  0  0  0
  117.5404  124.5840   84.4388 H   0  0  0  0  0  0  0  0  0  0  0  0
  118.6302  122.1769   85.1001 H   0  0  0  0  0  0  0  0  0  0  0  0
  120.0657  123.9130   86.7493 H   0  0  0  0  0  0  0  0  0  0  0  0
  120.6142  122.3733   88.4826 H   0  0  0  0  0  0  0  0  0  0  0  0
  122.4807  121.2732   89.7096 H   0  0  0  0  0  0  0  0  0  0  0  0
  123.1986  122.9971   85.0824 H   0  0  0  0  0  0  0  0  0  0  0  0
  1  2  1  0
  2  3  1  0
  3  4  1  0
  4  5  1  0
  5  6  2  0
  5  7  1  0
  7  8  1  0
  8  9  2  0
  9 10  1  0
 10 11  2  0
 11 12  1  0
 11 13  1  0
 13 14  1  0
 13 15  2  0
 15  8  1  0
  1 16  1  0
  2 17  1  0
  2 18  1  0
  3 19  1  0
  3 20  1  0
  4 21  1  0
  7 22  1  0
  9 23  1  0
 10 24  1  0
 15 25  1  0
M  END
>  <loss>  (5) 
0.4609036147594452

>  <score>  (5) 
3.097456932067871

$$$$
UFTYCEAGKXXBJN-UHFFFAOYSA-N
     RDKit          3D

 25 25  0  0  0  0  0  0  0  0999 V2000
  117.7749  122.6140   82.3856 O   0  0  0  0  0  0  0  0  0  0  0  0
  117.1275  123.0058   83.5990 C   0  0  0  0  0  0  0  0  0  0  0  0
  118.1642  123.4399   84.6384 C   0  0  0  0  0  0  0  0  0  0  0  0
  119.5375  123.1778   84.2152 N   0  0  0  0  0  0  0  0  0  0  0  0
  120.7043  123.4788   84.8700 C   0  0  0  0  0  0  0  0  0  0  0  0
  121.6010  124.7316   84.2268 S   0  0  0  0  0  0  0  0  0  0  0  0
  120.9531  122.7199   85.9841 N   0  0  0  0  0  0  0  0  0  0  0  0
  122.1528  122.3573   86.6319 C   0  0  0  0  0  0  0  0  0  0  0  0
  123.4051  122.3221   86.0189 C   0  0  0  0  0  0  0  0  0  0  0  0
  124.5403  121.9270   86.7373 C   0  0  0  0  0  0  0  0  0  0  0  0
  124.4324  121.5472   88.0754 C   0  0  0  0  0  0  0  0  0  0  0  0
  125.8730  121.0703   88.8994 Cl  0  0  0  0  0  0  0  0  0  0  0  0
  123.1796  121.5536   88.6920 C   0  0  0  0  0  0  0  0  0  0  0  0
  122.9555  121.0831   90.3403 Cl  0  0  0  0  0  0  0  0  0  0  0  0
  122.0480  121.9491   87.9688 C   0  0  0  0  0  0  0  0  0  0  0  0
  118.6018  122.1135   82.5995 H   0  0  0  0  0  0  0  0  0  0  0  0
  116.4472  123.8452   83.3926 H   0  0  0  0  0  0  0  0  0  0  0  0
  116.5610  122.1499   83.9947 H   0  0  0  0  0  0  0  0  0  0  0  0
  118.0518  124.5195   84.8166 H   0  0  0  0  0  0  0  0  0  0  0  0
  117.9823  122.8533   85.5510 H   0  0  0  0  0  0  0  0  0  0  0  0
  119.6433  122.7051   83.3062 H   0  0  0  0  0  0  0  0  0  0  0  0
  120.1053  122.3439   86.4322 H   0  0  0  0  0  0  0  0  0  0  0  0
  123.5019  122.6075   84.9609 H   0  0  0  0  0  0  0  0  0  0  0  0
  125.5232  121.9160   86.2436 H   0  0  0  0  0  0  0  0  0  0  0  0
  121.0623  121.9394   88.4568 H   0  0  0  0  0  0  0  0  0  0  0  0
  1  2  1  0
  2  3  1  0
  3  4  1  0
  4  5  1  0
  5  6  2  0
  5  7  1  0
  7  8  1  0
  8  9  2  0
  9 10  1  0
 10 11  2  0
 11 12  1  0
 11 13  1  0
 13 14  1  0
 13 15  2  0
 15  8  1  0
  1 16  1  0
  2 17  1  0
  2 18  1  0
  3 19  1  0
  3 20  1  0
  4 21  1  0
  7 22  1  0
  9 23  1  0
 10 24  1  0
 15 25  1  0
M  END
>  <loss>  (6) 
0.5111205577850342

>  <score>  (6) 
3.334761142730713

$$$$
UFTYCEAGKXXBJN-UHFFFAOYSA-N
     RDKit          3D

 25 25  0  0  0  0  0  0  0  0999 V2000
  118.4690  122.3702   82.0972 O   0  0  0  0  0  0  0  0  0  0  0  0
  117.9789  122.5957   83.4128 C   0  0  0  0  0  0  0  0  0  0  0  0
  118.5390  123.8992   83.9774 C   0  0  0  0  0  0  0  0  0  0  0  0
  119.3971  123.6885   85.1348 N   0  0  0  0  0  0  0  0  0  0  0  0
  120.7672  123.6219   85.1522 C   0  0  0  0  0  0  0  0  0  0  0  0
  121.5737  124.9808   84.6157 S   0  0  0  0  0  0  0  0  0  0  0  0
  121.2820  122.4473   85.6420 N   0  0  0  0  0  0  0  0  0  0  0  0
  122.4233  122.1878   86.4332 C   0  0  0  0  0  0  0  0  0  0  0  0
  123.7319  122.1802   85.9493 C   0  0  0  0  0  0  0  0  0  0  0  0
  124.8059  121.8867   86.7988 C   0  0  0  0  0  0  0  0  0  0  0  0
  124.5813  121.5808   88.1412 C   0  0  0  0  0  0  0  0  0  0  0  0
  125.9512  121.2263   89.1303 Cl  0  0  0  0  0  0  0  0  0  0  0  0
  123.2736  121.5595   88.6302 C   0  0  0  0  0  0  0  0  0  0  0  0
  122.9056  121.1741   90.2746 Cl  0  0  0  0  0  0  0  0  0  0  0  0
  122.2026  121.8536   87.7764 C   0  0  0  0  0  0  0  0  0  0  0  0
  119.3673  121.9570   82.1460 H   0  0  0  0  0  0  0  0  0  0  0  0
  116.8809  122.6559   83.3845 H   0  0  0  0  0  0  0  0  0  0  0  0
  118.2971  121.7634   84.0579 H   0  0  0  0  0  0  0  0  0  0  0  0
  119.1243  124.3999   83.1920 H   0  0  0  0  0  0  0  0  0  0  0  0
  117.6864  124.5129   84.3037 H   0  0  0  0  0  0  0  0  0  0  0  0
  118.9222  123.5770   86.0420 H   0  0  0  0  0  0  0  0  0  0  0  0
  120.7414  121.6081   85.3882 H   0  0  0  0  0  0  0  0  0  0  0  0
  123.9220  122.4069   84.8899 H   0  0  0  0  0  0  0  0  0  0  0  0
  125.8329  121.8975   86.4051 H   0  0  0  0  0  0  0  0  0  0  0  0
  121.1742  121.8218   88.1655 H   0  0  0  0  0  0  0  0  0  0  0  0
  1  2  1  0
  2  3  1  0
  3  4  1  0
  4  5  1  0
  5  6  2  0
  5  7  1  0
  7  8  1  0
  8  9  2  0
  9 10  1  0
 10 11  2  0
 11 12  1  0
 11 13  1  0
 13 14  1  0
 13 15  2  0
 15  8  1  0
  1 16  1  0
  2 17  1  0
  2 18  1  0
  3 19  1  0
  3 20  1  0
  4 21  1  0
  7 22  1  0
  9 23  1  0
 10 24  1  0
 15 25  1  0
M  END
>  <loss>  (7) 
0.5266667604446411

>  <score>  (7) 
3.411735773086548

$$$$
UFTYCEAGKXXBJN-UHFFFAOYSA-N
     RDKit          3D

 25 25  0  0  0  0  0  0  0  0999 V2000
  117.7771  122.4007   82.3069 O   0  0  0  0  0  0  0  0  0  0  0  0
  117.5009  123.3259   83.3508 C   0  0  0  0  0  0  0  0  0  0  0  0
  118.2263  122.9208   84.6319 C   0  0  0  0  0  0  0  0  0  0  0  0
  119.3342  123.8084   84.9560 N   0  0  0  0  0  0  0  0  0  0  0  0
  120.6736  123.5144   84.9159 C   0  0  0  0  0  0  0  0  0  0  0  0
  121.6155  124.5155   83.9696 S   0  0  0  0  0  0  0  0  0  0  0  0
  121.0541  122.4477   85.6917 N   0  0  0  0  0  0  0  0  0  0  0  0
  122.2354  122.2042   86.4274 C   0  0  0  0  0  0  0  0  0  0  0  0
  123.5222  122.2552   85.8904 C   0  0  0  0  0  0  0  0  0  0  0  0
  124.6398  121.9739   86.6860 C   0  0  0  0  0  0  0  0  0  0  0  0
  124.4817  121.6216   88.0265 C   0  0  0  0  0  0  0  0  0  0  0  0
  125.9027  121.2853   88.9475 Cl  0  0  0  0  0  0  0  0  0  0  0  0
  123.1970  121.5416   88.5676 C   0  0  0  0  0  0  0  0  0  0  0  0
  122.9110  121.0963   90.2132 Cl  0  0  0  0  0  0  0  0  0  0  0  0
  122.0822  121.8238   87.7677 C   0  0  0  0  0  0  0  0  0  0  0  0
  118.0371  121.5294   82.6985 H   0  0  0  0  0  0  0  0  0  0  0  0
  117.8383  124.3273   83.0452 H   0  0  0  0  0  0  0  0  0  0  0  0
  116.4178  123.3321   83.5426 H   0  0  0  0  0  0  0  0  0  0  0  0
  117.5069  122.9379   85.4638 H   0  0  0  0  0  0  0  0  0  0  0  0
  118.6423  121.9148   84.4737 H   0  0  0  0  0  0  0  0  0  0  0  0
  119.0843  124.7640   85.2481 H   0  0  0  0  0  0  0  0  0  0  0  0
  120.3559  121.6924   85.7472 H   0  0  0  0  0  0  0  0  0  0  0  0
  123.6602  122.5190   84.8315 H   0  0  0  0  0  0  0  0  0  0  0  0
  125.6486  122.0310   86.2512 H   0  0  0  0  0  0  0  0  0  0  0  0
  121.0726  121.7458   88.1973 H   0  0  0  0  0  0  0  0  0  0  0  0
  1  2  1  0
  2  3  1  0
  3  4  1  0
  4  5  1  0
  5  6  2  0
  5  7  1  0
  7  8  1  0
  8  9  2  0
  9 10  1  0
 10 11  2  0
 11 12  1  0
 11 13  1  0
 13 14  1  0
 13 15  2  0
 15  8  1  0
  1 16  1  0
  2 17  1  0
  2 18  1  0
  3 19  1  0
  3 20  1  0
  4 21  1  0
  7 22  1  0
  9 23  1  0
 10 24  1  0
 15 25  1  0
M  END
>  <loss>  (8) 
0.5111542344093323

>  <score>  (8) 
3.3325352668762207

$$$$
UFTYCEAGKXXBJN-UHFFFAOYSA-N
     RDKit          3D

 25 25  0  0  0  0  0  0  0  0999 V2000
  117.3412  122.4690   82.5452 O   0  0  0  0  0  0  0  0  0  0  0  0
  116.9938  122.8587   83.8765 C   0  0  0  0  0  0  0  0  0  0  0  0
  118.1578  123.6056   84.5327 C   0  0  0  0  0  0  0  0  0  0  0  0
  119.4629  123.0713   84.1516 N   0  0  0  0  0  0  0  0  0  0  0  0
  120.6954  123.3820   84.6664 C   0  0  0  0  0  0  0  0  0  0  0  0
  121.6803  124.3142   83.6925 S   0  0  0  0  0  0  0  0  0  0  0  0
  120.9312  122.9023   85.9286 N   0  0  0  0  0  0  0  0  0  0  0  0
  122.1121  122.4762   86.5723 C   0  0  0  0  0  0  0  0  0  0  0  0
  123.3774  122.4721   85.9853 C   0  0  0  0  0  0  0  0  0  0  0  0
  124.4919  122.0089   86.6955 C   0  0  0  0  0  0  0  0  0  0  0  0
  124.3500  121.5293   87.9980 C   0  0  0  0  0  0  0  0  0  0  0  0
  125.7665  120.9727   88.8136 Cl  0  0  0  0  0  0  0  0  0  0  0  0
  123.0839  121.5045   88.5862 C   0  0  0  0  0  0  0  0  0  0  0  0
  122.8179  120.9123   90.1884 Cl  0  0  0  0  0  0  0  0  0  0  0  0
  121.9731  121.9684   87.8714 C   0  0  0  0  0  0  0  0  0  0  0  0
  117.9996  121.7305   82.5787 H   0  0  0  0  0  0  0  0  0  0  0  0
  116.1129  123.5167   83.8438 H   0  0  0  0  0  0  0  0  0  0  0  0
  116.7694  121.9575   84.4660 H   0  0  0  0  0  0  0  0  0  0  0  0
  118.1102  124.6628   84.2327 H   0  0  0  0  0  0  0  0  0  0  0  0
  118.0564  123.4841   85.6212 H   0  0  0  0  0  0  0  0  0  0  0  0
  119.4565  122.3695   83.3978 H   0  0  0  0  0  0  0  0  0  0  0  0
  120.0883  122.8415   86.5174 H   0  0  0  0  0  0  0  0  0  0  0  0
  123.5009  122.8362   84.9547 H   0  0  0  0  0  0  0  0  0  0  0  0
  125.4854  122.0233   86.2235 H   0  0  0  0  0  0  0  0  0  0  0  0
  120.9766  121.9338   88.3360 H   0  0  0  0  0  0  0  0  0  0  0  0
  1  2  1  0
  2  3  1  0
  3  4  1  0
  4  5  1  0
  5  6  2  0
  5  7  1  0
  7  8  1  0
  8  9  2  0
  9 10  1  0
 10 11  2  0
 11 12  1  0
 11 13  1  0
 13 14  1  0
 13 15  2  0
 15  8  1  0
  1 16  1  0
  2 17  1  0
  2 18  1  0
  3 19  1  0
  3 20  1  0
  4 21  1  0
  7 22  1  0
  9 23  1  0
 10 24  1  0
 15 25  1  0
M  END
>  <loss>  (9) 
0.5221592783927917

>  <score>  (9) 
3.3775415420532227

$$$$
UFTYCEAGKXXBJN-UHFFFAOYSA-N
     RDKit          3D

 25 25  0  0  0  0  0  0  0  0999 V2000
  117.8524  122.6389   82.1699 O   0  0  0  0  0  0  0  0  0  0  0  0
  117.3811  122.5997   83.5180 C   0  0  0  0  0  0  0  0  0  0  0  0
  118.2277  123.5100   84.4079 C   0  0  0  0  0  0  0  0  0  0  0  0
  119.6522  123.4169   84.0994 N   0  0  0  0  0  0  0  0  0  0  0  0
  120.7197  123.6630   84.9258 C   0  0  0  0  0  0  0  0  0  0  0  0
  121.4710  125.1391   84.7273 S   0  0  0  0  0  0  0  0  0  0  0  0
  120.9902  122.6672   85.8314 N   0  0  0  0  0  0  0  0  0  0  0  0
  122.1672  122.3202   86.5293 C   0  0  0  0  0  0  0  0  0  0  0  0
  122.0074  121.9149   87.8616 C   0  0  0  0  0  0  0  0  0  0  0  0
  123.1090  121.5360   88.6339 C   0  0  0  0  0  0  0  0  0  0  0  0
  124.3875  121.5414   88.0768 C   0  0  0  0  0  0  0  0  0  0  0  0
  125.7066  121.0613   89.0830 Cl  0  0  0  0  0  0  0  0  0  0  0  0
  124.5551  121.9180   86.7413 C   0  0  0  0  0  0  0  0  0  0  0  0
  126.1050  121.9182   85.9732 Cl  0  0  0  0  0  0  0  0  0  0  0  0
  123.4464  122.2989   85.9717 C   0  0  0  0  0  0  0  0  0  0  0  0
  118.8390  122.7210   82.1675 H   0  0  0  0  0  0  0  0  0  0  0  0
  116.3347  122.9379   83.5456 H   0  0  0  0  0  0  0  0  0  0  0  0
  117.4561  121.5677   83.8911 H   0  0  0  0  0  0  0  0  0  0  0  0
  117.9014  124.5503   84.2622 H   0  0  0  0  0  0  0  0  0  0  0  0
  118.0871  123.1875   85.4501 H   0  0  0  0  0  0  0  0  0  0  0  0
  119.8854  123.1296   83.1381 H   0  0  0  0  0  0  0  0  0  0  0  0
  120.1845  122.0605   86.0405 H   0  0  0  0  0  0  0  0  0  0  0  0
  121.0011  121.8947   88.3053 H   0  0  0  0  0  0  0  0  0  0  0  0
  122.9675  121.2335   89.6820 H   0  0  0  0  0  0  0  0  0  0  0  0
  123.5863  122.5837   84.9184 H   0  0  0  0  0  0  0  0  0  0  0  0
  1  2  1  0
  2  3  1  0
  3  4  1  0
  4  5  1  0
  5  6  2  0
  5  7  1  0
  7  8  1  0
  8  9  2  0
  9 10  1  0
 10 11  2  0
 11 12  1  0
 11 13  1  0
 13 14  1  0
 13 15  2  0
 15  8  1  0
  1 16  1  0
  2 17  1  0
  2 18  1  0
  3 19  1  0
  3 20  1  0
  4 21  1  0
  7 22  1  0
  9 23  1  0
 10 24  1  0
 15 25  1  0
M  END
>  <loss>  (10) 
0.507363498210907

>  <score>  (10) 
3.3011882305145264

$$$$
UFTYCEAGKXXBJN-UHFFFAOYSA-N
     RDKit          3D

 25 25  0  0  0  0  0  0  0  0999 V2000
  116.5951  122.2194   83.6019 O   0  0  0  0  0  0  0  0  0  0  0  0
  117.6305  123.1486   83.3085 C   0  0  0  0  0  0  0  0  0  0  0  0
  118.9965  122.5571   83.6503 C   0  0  0  0  0  0  0  0  0  0  0  0
  119.9667  123.5739   84.0316 N   0  0  0  0  0  0  0  0  0  0  0  0
  120.5178  123.7737   85.2718 C   0  0  0  0  0  0  0  0  0  0  0  0
  120.6810  125.3631   85.7534 S   0  0  0  0  0  0  0  0  0  0  0  0
  120.8272  122.6272   85.9601 N   0  0  0  0  0  0  0  0  0  0  0  0
  121.9881  122.2543   86.6737 C   0  0  0  0  0  0  0  0  0  0  0  0
  123.2068  122.3394   85.9874 C   0  0  0  0  0  0  0  0  0  0  0  0
  124.4097  122.0095   86.6189 C   0  0  0  0  0  0  0  0  0  0  0  0
  124.4115  121.6067   87.9545 C   0  0  0  0  0  0  0  0  0  0  0  0
  125.9311  121.2151   88.6753 Cl  0  0  0  0  0  0  0  0  0  0  0  0
  123.2049  121.5461   88.6567 C   0  0  0  0  0  0  0  0  0  0  0  0
  123.1319  121.0892   90.3231 Cl  0  0  0  0  0  0  0  0  0  0  0  0
  122.0011  121.8762   88.0178 C   0  0  0  0  0  0  0  0  0  0  0  0
  116.4981  122.1324   84.5833 H   0  0  0  0  0  0  0  0  0  0  0  0
  117.6015  123.3957   82.2370 H   0  0  0  0  0  0  0  0  0  0  0  0
  117.4754  124.0547   83.9125 H   0  0  0  0  0  0  0  0  0  0  0  0
  118.8764  121.8531   84.4870 H   0  0  0  0  0  0  0  0  0  0  0  0
  119.3771  122.0542   82.7490 H   0  0  0  0  0  0  0  0  0  0  0  0
  120.2737  124.2151   83.2863 H   0  0  0  0  0  0  0  0  0  0  0  0
  120.0835  121.9146   85.9556 H   0  0  0  0  0  0  0  0  0  0  0  0
  123.2172  122.6700   84.9383 H   0  0  0  0  0  0  0  0  0  0  0  0
  125.3564  122.0676   86.0617 H   0  0  0  0  0  0  0  0  0  0  0  0
  121.0572  121.8369   88.5813 H   0  0  0  0  0  0  0  0  0  0  0  0
  1  2  1  0
  2  3  1  0
  3  4  1  0
  4  5  1  0
  5  6  2  0
  5  7  1  0
  7  8  1  0
  8  9  2  0
  9 10  1  0
 10 11  2  0
 11 12  1  0
 11 13  1  0
 13 14  1  0
 13 15  2  0
 15  8  1  0
  1 16  1  0
  2 17  1  0
  2 18  1  0
  3 19  1  0
  3 20  1  0
  4 21  1  0
  7 22  1  0
  9 23  1  0
 10 24  1  0
 15 25  1  0
M  END
>  <loss>  (11) 
0.5294875502586365

>  <score>  (11) 
3.402331829071045

$$$$
UFTYCEAGKXXBJN-UHFFFAOYSA-N
     RDKit          3D

 25 25  0  0  0  0  0  0  0  0999 V2000
  118.1277  122.2801   82.3393 O   0  0  0  0  0  0  0  0  0  0  0  0
  117.6965  122.7239   83.6196 C   0  0  0  0  0  0  0  0  0  0  0  0
  118.4841  123.9583   84.0523 C   0  0  0  0  0  0  0  0  0  0  0  0
  119.4373  123.6736   85.1156 N   0  0  0  0  0  0  0  0  0  0  0  0
  120.8054  123.6463   85.0197 C   0  0  0  0  0  0  0  0  0  0  0  0
  121.5303  125.0495   84.4807 S   0  0  0  0  0  0  0  0  0  0  0  0
  121.3885  122.4677   85.4140 N   0  0  0  0  0  0  0  0  0  0  0  0
  122.4886  122.2097   86.2621 C   0  0  0  0  0  0  0  0  0  0  0  0
  123.8213  122.2207   85.8487 C   0  0  0  0  0  0  0  0  0  0  0  0
  124.8513  121.9274   86.7510 C   0  0  0  0  0  0  0  0  0  0  0  0
  124.5586  121.6031   88.0758 C   0  0  0  0  0  0  0  0  0  0  0  0
  125.8774  121.2499   89.1325 Cl  0  0  0  0  0  0  0  0  0  0  0  0
  123.2270  121.5631   88.4939 C   0  0  0  0  0  0  0  0  0  0  0  0
  122.7758  121.1542   90.1117 Cl  0  0  0  0  0  0  0  0  0  0  0  0
  122.2001  121.8571   87.5875 C   0  0  0  0  0  0  0  0  0  0  0  0
  118.8134  121.5745   82.4483 H   0  0  0  0  0  0  0  0  0  0  0  0
  116.6265  122.9750   83.5740 H   0  0  0  0  0  0  0  0  0  0  0  0
  117.8670  121.9195   84.3503 H   0  0  0  0  0  0  0  0  0  0  0  0
  119.0334  124.3478   83.1825 H   0  0  0  0  0  0  0  0  0  0  0  0
  117.7631  124.6927   84.4408 H   0  0  0  0  0  0  0  0  0  0  0  0
  119.0397  123.4699   86.0437 H   0  0  0  0  0  0  0  0  0  0  0  0
  120.9465  121.6235   85.0230 H   0  0  0  0  0  0  0  0  0  0  0  0
  124.0652  122.4622   84.8037 H   0  0  0  0  0  0  0  0  0  0  0  0
  125.8978  121.9529   86.4129 H   0  0  0  0  0  0  0  0  0  0  0  0
  121.1528  121.8106   87.9207 H   0  0  0  0  0  0  0  0  0  0  0  0
  1  2  1  0
  2  3  1  0
  3  4  1  0
  4  5  1  0
  5  6  2  0
  5  7  1  0
  7  8  1  0
  8  9  2  0
  9 10  1  0
 10 11  2  0
 11 12  1  0
 11 13  1  0
 13 14  1  0
 13 15  2  0
 15  8  1  0
  1 16  1  0
  2 17  1  0
  2 18  1  0
  3 19  1  0
  3 20  1  0
  4 21  1  0
  7 22  1  0
  9 23  1  0
 10 24  1  0
 15 25  1  0
M  END
>  <loss>  (12) 
0.5206918120384216

>  <score>  (12) 
3.3288733959198

$$$$
UFTYCEAGKXXBJN-UHFFFAOYSA-N
     RDKit          3D

 25 25  0  0  0  0  0  0  0  0999 V2000
  117.5518  122.4284   82.3515 O   0  0  0  0  0  0  0  0  0  0  0  0
  117.1740  122.7004   83.7021 C   0  0  0  0  0  0  0  0  0  0  0  0
  118.2323  123.5625   84.3909 C   0  0  0  0  0  0  0  0  0  0  0  0
  119.5909  123.1523   84.0460 N   0  0  0  0  0  0  0  0  0  0  0  0
  120.7609  123.4491   84.6988 C   0  0  0  0  0  0  0  0  0  0  0  0
  121.7844  124.5089   83.9164 S   0  0  0  0  0  0  0  0  0  0  0  0
  120.9010  122.8580   85.9299 N   0  0  0  0  0  0  0  0  0  0  0  0
  122.0383  122.4240   86.6447 C   0  0  0  0  0  0  0  0  0  0  0  0
  121.8159  121.9494   87.9447 C   0  0  0  0  0  0  0  0  0  0  0  0
  122.8741  121.4824   88.7295 C   0  0  0  0  0  0  0  0  0  0  0  0
  124.1708  121.4681   88.2164 C   0  0  0  0  0  0  0  0  0  0  0  0
  125.4340  120.8779   89.2356 Cl  0  0  0  0  0  0  0  0  0  0  0  0
  124.4000  121.9140   86.9117 C   0  0  0  0  0  0  0  0  0  0  0  0
  125.9750  121.8958   86.1967 Cl  0  0  0  0  0  0  0  0  0  0  0  0
  123.3347  122.3832   86.1295 C   0  0  0  0  0  0  0  0  0  0  0  0
  118.3552  121.8499   82.3436 H   0  0  0  0  0  0  0  0  0  0  0  0
  116.2122  123.2340   83.7085 H   0  0  0  0  0  0  0  0  0  0  0  0
  117.0829  121.7479   84.2448 H   0  0  0  0  0  0  0  0  0  0  0  0
  118.0902  124.6093   84.0844 H   0  0  0  0  0  0  0  0  0  0  0  0
  118.1097  123.4421   85.4774 H   0  0  0  0  0  0  0  0  0  0  0  0
  119.6826  122.5648   83.2050 H   0  0  0  0  0  0  0  0  0  0  0  0
  120.0107  122.7022   86.4239 H   0  0  0  0  0  0  0  0  0  0  0  0
  120.7945  121.9443   88.3530 H   0  0  0  0  0  0  0  0  0  0  0  0
  122.6840  121.1258   89.7526 H   0  0  0  0  0  0  0  0  0  0  0  0
  123.5227  122.7223   85.1001 H   0  0  0  0  0  0  0  0  0  0  0  0
  1  2  1  0
  2  3  1  0
  3  4  1  0
  4  5  1  0
  5  6  2  0
  5  7  1  0
  7  8  1  0
  8  9  2  0
  9 10  1  0
 10 11  2  0
 11 12  1  0
 11 13  1  0
 13 14  1  0
 13 15  2  0
 15  8  1  0
  1 16  1  0
  2 17  1  0
  2 18  1  0
  3 19  1  0
  3 20  1  0
  4 21  1  0
  7 22  1  0
  9 23  1  0
 10 24  1  0
 15 25  1  0
M  END
>  <loss>  (13) 
0.5193982124328613

>  <score>  (13) 
3.2999699115753174

$$$$
UFTYCEAGKXXBJN-UHFFFAOYSA-N
     RDKit          3D

 25 25  0  0  0  0  0  0  0  0999 V2000
  116.6661  122.2902   83.1154 O   0  0  0  0  0  0  0  0  0  0  0  0
  117.9797  122.8174   82.9664 C   0  0  0  0  0  0  0  0  0  0  0  0
  118.2049  123.9726   83.9432 C   0  0  0  0  0  0  0  0  0  0  0  0
  119.5029  123.9151   84.6101 N   0  0  0  0  0  0  0  0  0  0  0  0
  119.7484  123.4984   85.9138 C   0  0  0  0  0  0  0  0  0  0  0  0
  119.0727  124.2151   87.2637 S   0  0  0  0  0  0  0  0  0  0  0  0
  120.6791  122.4660   85.8901 N   0  0  0  0  0  0  0  0  0  0  0  0
  121.7888  122.2021   86.7230 C   0  0  0  0  0  0  0  0  0  0  0  0
  123.0603  122.3991   86.1695 C   0  0  0  0  0  0  0  0  0  0  0  0
  124.2134  122.1395   86.9162 C   0  0  0  0  0  0  0  0  0  0  0  0
  124.1088  121.6596   88.2222 C   0  0  0  0  0  0  0  0  0  0  0  0
  125.5718  121.3571   89.0883 Cl  0  0  0  0  0  0  0  0  0  0  0  0
  122.8448  121.4310   88.7728 C   0  0  0  0  0  0  0  0  0  0  0  0
  122.6362  120.8034   90.3707 Cl  0  0  0  0  0  0  0  0  0  0  0  0
  121.6916  121.6950   88.0205 C   0  0  0  0  0  0  0  0  0  0  0  0
  116.4522  122.2044   84.0782 H   0  0  0  0  0  0  0  0  0  0  0  0
  118.7138  122.0235   83.1686 H   0  0  0  0  0  0  0  0  0  0  0  0
  118.0997  123.1907   81.9387 H   0  0  0  0  0  0  0  0  0  0  0  0
  118.1390  124.9192   83.3867 H   0  0  0  0  0  0  0  0  0  0  0  0
  117.4323  123.8980   84.7227 H   0  0  0  0  0  0  0  0  0  0  0  0
  120.3200  124.2136   84.0585 H   0  0  0  0  0  0  0  0  0  0  0  0
  120.5350  121.7771   85.1381 H   0  0  0  0  0  0  0  0  0  0  0  0
  123.1526  122.7622   85.1353 H   0  0  0  0  0  0  0  0  0  0  0  0
  125.2051  122.3140   86.4733 H   0  0  0  0  0  0  0  0  0  0  0  0
  120.7006  121.5008   88.4566 H   0  0  0  0  0  0  0  0  0  0  0  0
  1  2  1  0
  2  3  1  0
  3  4  1  0
  4  5  1  0
  5  6  2  0
  5  7  1  0
  7  8  1  0
  8  9  2  0
  9 10  1  0
 10 11  2  0
 11 12  1  0
 11 13  1  0
 13 14  1  0
 13 15  2  0
 15  8  1  0
  1 16  1  0
  2 17  1  0
  2 18  1  0
  3 19  1  0
  3 20  1  0
  4 21  1  0
  7 22  1  0
  9 23  1  0
 10 24  1  0
 15 25  1  0
M  END
>  <loss>  (14) 
0.5257711410522461

>  <score>  (14) 
3.312838554382324

$$$$
UFTYCEAGKXXBJN-UHFFFAOYSA-N
     RDKit          3D

 25 25  0  0  0  0  0  0  0  0999 V2000
  117.7821  122.2761   82.2573 O   0  0  0  0  0  0  0  0  0  0  0  0
  117.6312  122.6776   83.6129 C   0  0  0  0  0  0  0  0  0  0  0  0
  118.4421  123.9411   83.8929 C   0  0  0  0  0  0  0  0  0  0  0  0
  119.3721  123.7747   85.0012 N   0  0  0  0  0  0  0  0  0  0  0  0
  120.6930  123.4114   84.9308 C   0  0  0  0  0  0  0  0  0  0  0  0
  121.6565  124.3418   83.9355 S   0  0  0  0  0  0  0  0  0  0  0  0
  121.0441  122.3465   85.7225 N   0  0  0  0  0  0  0  0  0  0  0  0
  122.1797  122.1234   86.5329 C   0  0  0  0  0  0  0  0  0  0  0  0
  121.9441  121.7389   87.8595 C   0  0  0  0  0  0  0  0  0  0  0  0
  123.0068  121.4777   88.7297 C   0  0  0  0  0  0  0  0  0  0  0  0
  124.3226  121.5801   88.2779 C   0  0  0  0  0  0  0  0  0  0  0  0
  125.5886  121.2424   89.4027 Cl  0  0  0  0  0  0  0  0  0  0  0  0
  124.5684  121.9348   86.9488 C   0  0  0  0  0  0  0  0  0  0  0  0
  126.1706  122.0483   86.3078 Cl  0  0  0  0  0  0  0  0  0  0  0  0
  123.4988  122.1976   86.0809 C   0  0  0  0  0  0  0  0  0  0  0  0
  118.1301  121.3499   82.2243 H   0  0  0  0  0  0  0  0  0  0  0  0
  116.5686  122.8780   83.8144 H   0  0  0  0  0  0  0  0  0  0  0  0
  117.9965  121.8702   84.2646 H   0  0  0  0  0  0  0  0  0  0  0  0
  119.0134  124.2007   82.9894 H   0  0  0  0  0  0  0  0  0  0  0  0
  117.7347  124.7373   84.1679 H   0  0  0  0  0  0  0  0  0  0  0  0
  118.9957  123.9495   85.9439 H   0  0  0  0  0  0  0  0  0  0  0  0
  120.3607  121.5758   85.7264 H   0  0  0  0  0  0  0  0  0  0  0  0
  120.9098  121.6412   88.2210 H   0  0  0  0  0  0  0  0  0  0  0  0
  122.8050  121.1911   89.7723 H   0  0  0  0  0  0  0  0  0  0  0  0
  123.7009  122.4649   85.0332 H   0  0  0  0  0  0  0  0  0  0  0  0
  1  2  1  0
  2  3  1  0
  3  4  1  0
  4  5  1  0
  5  6  2  0
  5  7  1  0
  7  8  1  0
  8  9  2  0
  9 10  1  0
 10 11  2  0
 11 12  1  0
 11 13  1  0
 13 14  1  0
 13 15  2  0
 15  8  1  0
  1 16  1  0
  2 17  1  0
  2 18  1  0
  3 19  1  0
  3 20  1  0
  4 21  1  0
  7 22  1  0
  9 23  1  0
 10 24  1  0
 15 25  1  0
M  END
>  <loss>  (15) 
0.5140146613121033

>  <score>  (15) 
3.2104837894439697

$$$$
UFTYCEAGKXXBJN-UHFFFAOYSA-N
     RDKit          3D

 25 25  0  0  0  0  0  0  0  0999 V2000
  117.7040  122.6632   82.4224 O   0  0  0  0  0  0  0  0  0  0  0  0
  117.1203  123.1131   83.6399 C   0  0  0  0  0  0  0  0  0  0  0  0
  118.2034  123.3619   84.6909 C   0  0  0  0  0  0  0  0  0  0  0  0
  119.5572  123.2883   84.1479 N   0  0  0  0  0  0  0  0  0  0  0  0
  120.7403  123.5492   84.8302 C   0  0  0  0  0  0  0  0  0  0  0  0
  121.7341  124.8533   84.5070 S   0  0  0  0  0  0  0  0  0  0  0  0
  120.9707  122.5256   85.7422 N   0  0  0  0  0  0  0  0  0  0  0  0
  122.0994  122.2342   86.5397 C   0  0  0  0  0  0  0  0  0  0  0  0
  123.3498  122.2721   85.9099 C   0  0  0  0  0  0  0  0  0  0  0  0
  124.5172  121.9741   86.6192 C   0  0  0  0  0  0  0  0  0  0  0  0
  124.4462  121.6144   87.9654 C   0  0  0  0  0  0  0  0  0  0  0  0
  125.9250  121.2563   88.7822 Cl  0  0  0  0  0  0  0  0  0  0  0  0
  123.2004  121.5443   88.5948 C   0  0  0  0  0  0  0  0  0  0  0  0
  123.0298  121.0712   90.2494 Cl  0  0  0  0  0  0  0  0  0  0  0  0
  122.0330  121.8462   87.8796 C   0  0  0  0  0  0  0  0  0  0  0  0
  118.4718  122.0715   82.6234 H   0  0  0  0  0  0  0  0  0  0  0  0
  116.5728  124.0491   83.4552 H   0  0  0  0  0  0  0  0  0  0  0  0
  116.4325  122.3400   84.0128 H   0  0  0  0  0  0  0  0  0  0  0  0
  118.0521  124.3638   85.1190 H   0  0  0  0  0  0  0  0  0  0  0  0
  118.1113  122.5711   85.4499 H   0  0  0  0  0  0  0  0  0  0  0  0
  119.6445  123.0152   83.1586 H   0  0  0  0  0  0  0  0  0  0  0  0
  120.1856  121.8686   85.8555 H   0  0  0  0  0  0  0  0  0  0  0  0
  123.4141  122.5393   84.8448 H   0  0  0  0  0  0  0  0  0  0  0  0
  125.4936  122.0234   86.1150 H   0  0  0  0  0  0  0  0  0  0  0  0
  121.0552  121.7767   88.3787 H   0  0  0  0  0  0  0  0  0  0  0  0
  1  2  1  0
  2  3  1  0
  3  4  1  0
  4  5  1  0
  5  6  2  0
  5  7  1  0
  7  8  1  0
  8  9  2  0
  9 10  1  0
 10 11  2  0
 11 12  1  0
 11 13  1  0
 13 14  1  0
 13 15  2  0
 15  8  1  0
  1 16  1  0
  2 17  1  0
  2 18  1  0
  3 19  1  0
  3 20  1  0
  4 21  1  0
  7 22  1  0
  9 23  1  0
 10 24  1  0
 15 25  1  0
M  END
>  <loss>  (16) 
0.5269521474838257

>  <score>  (16) 
3.2561564445495605

$$$$
UFTYCEAGKXXBJN-UHFFFAOYSA-N
     RDKit          3D

 25 25  0  0  0  0  0  0  0  0999 V2000
  117.1079  124.2694   83.8293 O   0  0  0  0  0  0  0  0  0  0  0  0
  117.4638  123.0047   83.2647 C   0  0  0  0  0  0  0  0  0  0  0  0
  118.7103  122.4459   83.9555 C   0  0  0  0  0  0  0  0  0  0  0  0
  119.8637  123.3364   83.8541 N   0  0  0  0  0  0  0  0  0  0  0  0
  120.7550  123.6932   84.8334 C   0  0  0  0  0  0  0  0  0  0  0  0
  121.3097  125.2670   84.7786 S   0  0  0  0  0  0  0  0  0  0  0  0
  121.0417  122.7061   85.7402 N   0  0  0  0  0  0  0  0  0  0  0  0
  122.2238  122.3766   86.4363 C   0  0  0  0  0  0  0  0  0  0  0  0
  123.5005  122.3774   85.8747 C   0  0  0  0  0  0  0  0  0  0  0  0
  124.6163  122.0135   86.6388 C   0  0  0  0  0  0  0  0  0  0  0  0
  124.4648  121.6293   87.9714 C   0  0  0  0  0  0  0  0  0  0  0  0
  125.8835  121.1921   88.8533 Cl  0  0  0  0  0  0  0  0  0  0  0  0
  123.1882  121.5998   88.5365 C   0  0  0  0  0  0  0  0  0  0  0  0
  122.9105  121.1211   90.1743 Cl  0  0  0  0  0  0  0  0  0  0  0  0
  122.0763  121.9641   87.7678 C   0  0  0  0  0  0  0  0  0  0  0  0
  117.1256  124.2065   84.8172 H   0  0  0  0  0  0  0  0  0  0  0  0
  116.6291  122.3005   83.3971 H   0  0  0  0  0  0  0  0  0  0  0  0
  117.6779  123.1385   82.1940 H   0  0  0  0  0  0  0  0  0  0  0  0
  118.4809  122.2884   85.0198 H   0  0  0  0  0  0  0  0  0  0  0  0
  118.9741  121.5051   83.4502 H   0  0  0  0  0  0  0  0  0  0  0  0
  120.0293  123.7504   82.9256 H   0  0  0  0  0  0  0  0  0  0  0  0
  120.2449  122.0892   85.9532 H   0  0  0  0  0  0  0  0  0  0  0  0
  123.6323  122.6666   84.8216 H   0  0  0  0  0  0  0  0  0  0  0  0
  125.6184  122.0308   86.1855 H   0  0  0  0  0  0  0  0  0  0  0  0
  121.0722  121.9260   88.2153 H   0  0  0  0  0  0  0  0  0  0  0  0
  1  2  1  0
  2  3  1  0
  3  4  1  0
  4  5  1  0
  5  6  2  0
  5  7  1  0
  7  8  1  0
  8  9  2  0
  9 10  1  0
 10 11  2  0
 11 12  1  0
 11 13  1  0
 13 14  1  0
 13 15  2  0
 15  8  1  0
  1 16  1  0
  2 17  1  0
  2 18  1  0
  3 19  1  0
  3 20  1  0
  4 21  1  0
  7 22  1  0
  9 23  1  0
 10 24  1  0
 15 25  1  0
M  END
>  <loss>  (17) 
0.5458691716194153

>  <score>  (17) 
3.3431944847106934

$$$$
UFTYCEAGKXXBJN-UHFFFAOYSA-N
     RDKit          3D

 25 25  0  0  0  0  0  0  0  0999 V2000
  117.8161  123.9871   82.4450 O   0  0  0  0  0  0  0  0  0  0  0  0
  117.4076  123.1893   83.5592 C   0  0  0  0  0  0  0  0  0  0  0  0
  118.6168  122.4863   84.1815 C   0  0  0  0  0  0  0  0  0  0  0  0
  119.8723  123.1915   83.9367 N   0  0  0  0  0  0  0  0  0  0  0  0
  120.8027  123.6191   84.8490 C   0  0  0  0  0  0  0  0  0  0  0  0
  121.4898  125.1107   84.5478 S   0  0  0  0  0  0  0  0  0  0  0  0
  121.0146  122.7655   85.9003 N   0  0  0  0  0  0  0  0  0  0  0  0
  122.1870  122.3835   86.5861 C   0  0  0  0  0  0  0  0  0  0  0  0
  123.4527  122.3004   86.0061 C   0  0  0  0  0  0  0  0  0  0  0  0
  124.5579  121.8891   86.7614 C   0  0  0  0  0  0  0  0  0  0  0  0
  124.4058  121.5411   88.1039 C   0  0  0  0  0  0  0  0  0  0  0  0
  125.8112  121.0419   88.9742 Cl  0  0  0  0  0  0  0  0  0  0  0  0
  123.1387  121.5957   88.6879 C   0  0  0  0  0  0  0  0  0  0  0  0
  122.8601  121.1668   90.3393 Cl  0  0  0  0  0  0  0  0  0  0  0  0
  122.0372  122.0070   87.9279 C   0  0  0  0  0  0  0  0  0  0  0  0
  118.2419  124.8185   82.7729 H   0  0  0  0  0  0  0  0  0  0  0  0
  116.9353  123.8351   84.3141 H   0  0  0  0  0  0  0  0  0  0  0  0
  116.6918  122.4297   83.2120 H   0  0  0  0  0  0  0  0  0  0  0  0
  118.4604  122.4147   85.2680 H   0  0  0  0  0  0  0  0  0  0  0  0
  118.6987  121.4942   83.7135 H   0  0  0  0  0  0  0  0  0  0  0  0
  120.0869  123.3942   82.9499 H   0  0  0  0  0  0  0  0  0  0  0  0
  120.1573  122.3193   86.2565 H   0  0  0  0  0  0  0  0  0  0  0  0
  123.5841  122.5603   84.9454 H   0  0  0  0  0  0  0  0  0  0  0  0
  125.5522  121.8402   86.2933 H   0  0  0  0  0  0  0  0  0  0  0  0
  121.0397  122.0352   88.3906 H   0  0  0  0  0  0  0  0  0  0  0  0
  1  2  1  0
  2  3  1  0
  3  4  1  0
  4  5  1  0
  5  6  2  0
  5  7  1  0
  7  8  1  0
  8  9  2  0
  9 10  1  0
 10 11  2  0
 11 12  1  0
 11 13  1  0
 13 14  1  0
 13 15  2  0
 15  8  1  0
  1 16  1  0
  2 17  1  0
  2 18  1  0
  3 19  1  0
  3 20  1  0
  4 21  1  0
  7 22  1  0
  9 23  1  0
 10 24  1  0
 15 25  1  0
M  END
>  <loss>  (18) 
0.5468944311141968

>  <score>  (18) 
3.3443596363067627

$$$$
UFTYCEAGKXXBJN-UHFFFAOYSA-N
     RDKit          3D

 25 25  0  0  0  0  0  0  0  0999 V2000
  116.9377  121.9036   83.9663 O   0  0  0  0  0  0  0  0  0  0  0  0
  117.8642  122.5090   83.0716 C   0  0  0  0  0  0  0  0  0  0  0  0
  118.5977  123.6603   83.7615 C   0  0  0  0  0  0  0  0  0  0  0  0
  120.0213  123.3988   83.9560 N   0  0  0  0  0  0  0  0  0  0  0  0
  120.7805  123.7282   85.0733 C   0  0  0  0  0  0  0  0  0  0  0  0
  121.2759  125.2820   85.4381 S   0  0  0  0  0  0  0  0  0  0  0  0
  121.1001  122.5633   85.7615 N   0  0  0  0  0  0  0  0  0  0  0  0
  122.2067  122.2468   86.5801 C   0  0  0  0  0  0  0  0  0  0  0  0
  123.4669  122.2350   85.9690 C   0  0  0  0  0  0  0  0  0  0  0  0
  124.6133  121.9095   86.7001 C   0  0  0  0  0  0  0  0  0  0  0  0
  124.5105  121.5715   88.0499 C   0  0  0  0  0  0  0  0  0  0  0  0
  125.9646  121.1771   88.8940 Cl  0  0  0  0  0  0  0  0  0  0  0  0
  123.2539  121.5508   88.6611 C   0  0  0  0  0  0  0  0  0  0  0  0
  123.0435  121.1071   90.3192 Cl  0  0  0  0  0  0  0  0  0  0  0  0
  122.1078  121.8802   87.9240 C   0  0  0  0  0  0  0  0  0  0  0  0
  117.2141  122.0842   84.8996 H   0  0  0  0  0  0  0  0  0  0  0  0
  118.5970  121.7565   82.7448 H   0  0  0  0  0  0  0  0  0  0  0  0
  117.3157  122.9045   82.2040 H   0  0  0  0  0  0  0  0  0  0  0  0
  118.4891  124.5643   83.1442 H   0  0  0  0  0  0  0  0  0  0  0  0
  118.1483  123.7850   84.7577 H   0  0  0  0  0  0  0  0  0  0  0  0
  120.5132  122.9216   83.1871 H   0  0  0  0  0  0  0  0  0  0  0  0
  120.4138  121.8024   85.6567 H   0  0  0  0  0  0  0  0  0  0  0  0
  123.5557  122.4848   84.9014 H   0  0  0  0  0  0  0  0  0  0  0  0
  125.5981  121.9198   86.2102 H   0  0  0  0  0  0  0  0  0  0  0  0
  121.1209  121.8497   88.4090 H   0  0  0  0  0  0  0  0  0  0  0  0
  1  2  1  0
  2  3  1  0
  3  4  1  0
  4  5  1  0
  5  6  2  0
  5  7  1  0
  7  8  1  0
  8  9  2  0
  9 10  1  0
 10 11  2  0
 11 12  1  0
 11 13  1  0
 13 14  1  0
 13 15  2  0
 15  8  1  0
  1 16  1  0
  2 17  1  0
  2 18  1  0
  3 19  1  0
  3 20  1  0
  4 21  1  0
  7 22  1  0
  9 23  1  0
 10 24  1  0
 15 25  1  0
M  END
>  <loss>  (19) 
0.5500239729881287

>  <score>  (19) 
3.3528480529785156

$$$$
UFTYCEAGKXXBJN-UHFFFAOYSA-N
     RDKit          3D

 25 25  0  0  0  0  0  0  0  0999 V2000
  116.8050  122.1297   82.6729 O   0  0  0  0  0  0  0  0  0  0  0  0
  116.5579  122.9933   83.7856 C   0  0  0  0  0  0  0  0  0  0  0  0
  117.8123  123.8060   84.1166 C   0  0  0  0  0  0  0  0  0  0  0  0
  118.9134  122.9787   84.6034 N   0  0  0  0  0  0  0  0  0  0  0  0
  120.2211  123.3354   84.8120 C   0  0  0  0  0  0  0  0  0  0  0  0
  121.0876  123.7644   83.4508 S   0  0  0  0  0  0  0  0  0  0  0  0
  120.6226  123.3156   86.1224 N   0  0  0  0  0  0  0  0  0  0  0  0
  121.7423  122.7400   86.7591 C   0  0  0  0  0  0  0  0  0  0  0  0
  123.0254  122.6910   86.2143 C   0  0  0  0  0  0  0  0  0  0  0  0
  124.0736  122.0777   86.9116 C   0  0  0  0  0  0  0  0  0  0  0  0
  123.8458  121.4918   88.1571 C   0  0  0  0  0  0  0  0  0  0  0  0
  125.1839  120.7522   88.9598 Cl  0  0  0  0  0  0  0  0  0  0  0  0
  122.5596  121.5121   88.7004 C   0  0  0  0  0  0  0  0  0  0  0  0
  122.1881  120.7963   90.2295 Cl  0  0  0  0  0  0  0  0  0  0  0  0
  121.5154  122.1262   87.9987 C   0  0  0  0  0  0  0  0  0  0  0  0
  117.0617  121.2322   83.0025 H   0  0  0  0  0  0  0  0  0  0  0  0
  115.7359  123.6804   83.5361 H   0  0  0  0  0  0  0  0  0  0  0  0
  116.2867  122.3824   84.6592 H   0  0  0  0  0  0  0  0  0  0  0  0
  118.1419  124.3291   83.2067 H   0  0  0  0  0  0  0  0  0  0  0  0
  117.5476  124.5093   84.9199 H   0  0  0  0  0  0  0  0  0  0  0  0
  118.6767  121.9995   84.8180 H   0  0  0  0  0  0  0  0  0  0  0  0
  119.9879  123.8143   86.7621 H   0  0  0  0  0  0  0  0  0  0  0  0
  123.2157  123.1384   85.2276 H   0  0  0  0  0  0  0  0  0  0  0  0
  125.0829  122.0577   86.4745 H   0  0  0  0  0  0  0  0  0  0  0  0
  120.5020  122.1271   88.4264 H   0  0  0  0  0  0  0  0  0  0  0  0
  1  2  1  0
  2  3  1  0
  3  4  1  0
  4  5  1  0
  5  6  2  0
  5  7  1  0
  7  8  1  0
  8  9  2  0
  9 10  1  0
 10 11  2  0
 11 12  1  0
 11 13  1  0
 13 14  1  0
 13 15  2  0
 15  8  1  0
  1 16  1  0
  2 17  1  0
  2 18  1  0
  3 19  1  0
  3 20  1  0
  4 21  1  0
  7 22  1  0
  9 23  1  0
 10 24  1  0
 15 25  1  0
M  END
>  <loss>  (20) 
0.5015063881874084

>  <score>  (20) 
3.108856439590454

$$$$
UFTYCEAGKXXBJN-UHFFFAOYSA-N
     RDKit          3D

 25 25  0  0  0  0  0  0  0  0999 V2000
  116.9950  121.9744   83.6821 O   0  0  0  0  0  0  0  0  0  0  0  0
  117.8289  122.9970   83.1525 C   0  0  0  0  0  0  0  0  0  0  0  0
  119.2976  122.6998   83.4476 C   0  0  0  0  0  0  0  0  0  0  0  0
  119.9782  123.8198   84.0825 N   0  0  0  0  0  0  0  0  0  0  0  0
  120.6451  123.8161   85.2812 C   0  0  0  0  0  0  0  0  0  0  0  0
  120.7474  125.2846   86.0671 S   0  0  0  0  0  0  0  0  0  0  0  0
  121.1073  122.5878   85.6834 N   0  0  0  0  0  0  0  0  0  0  0  0
  122.1915  122.2276   86.5145 C   0  0  0  0  0  0  0  0  0  0  0  0
  123.4757  122.3507   85.9675 C   0  0  0  0  0  0  0  0  0  0  0  0
  124.6096  122.0356   86.7223 C   0  0  0  0  0  0  0  0  0  0  0  0
  124.4745  121.6099   88.0438 C   0  0  0  0  0  0  0  0  0  0  0  0
  125.9148  121.2385   88.9212 Cl  0  0  0  0  0  0  0  0  0  0  0  0
  123.2001  121.5113   88.6084 C   0  0  0  0  0  0  0  0  0  0  0  0
  122.9558  121.0240   90.2497 Cl  0  0  0  0  0  0  0  0  0  0  0  0
  122.0661  121.8265   87.8461 C   0  0  0  0  0  0  0  0  0  0  0  0
  117.0212  122.0066   84.6712 H   0  0  0  0  0  0  0  0  0  0  0  0
  117.6834  123.0543   82.0637 H   0  0  0  0  0  0  0  0  0  0  0  0
  117.5592  123.9538   83.6234 H   0  0  0  0  0  0  0  0  0  0  0  0
  119.3533  121.8285   84.1166 H   0  0  0  0  0  0  0  0  0  0  0  0
  119.7981  122.5063   82.4874 H   0  0  0  0  0  0  0  0  0  0  0  0
  119.9565  124.7155   83.5743 H   0  0  0  0  0  0  0  0  0  0  0  0
  120.5701  121.7898   85.3152 H   0  0  0  0  0  0  0  0  0  0  0  0
  123.5932  122.6996   84.9309 H   0  0  0  0  0  0  0  0  0  0  0  0
  125.6100  122.1237   86.2733 H   0  0  0  0  0  0  0  0  0  0  0  0
  121.0674  121.7572   88.3019 H   0  0  0  0  0  0  0  0  0  0  0  0
  1  2  1  0
  2  3  1  0
  3  4  1  0
  4  5  1  0
  5  6  2  0
  5  7  1  0
  7  8  1  0
  8  9  2  0
  9 10  1  0
 10 11  2  0
 11 12  1  0
 11 13  1  0
 13 14  1  0
 13 15  2  0
 15  8  1  0
  1 16  1  0
  2 17  1  0
  2 18  1  0
  3 19  1  0
  3 20  1  0
  4 21  1  0
  7 22  1  0
  9 23  1  0
 10 24  1  0
 15 25  1  0
M  END
>  <loss>  (21) 
0.5463900566101074

>  <score>  (21) 
3.2582452297210693

$$$$
UFTYCEAGKXXBJN-UHFFFAOYSA-N
     RDKit          3D

 25 25  0  0  0  0  0  0  0  0999 V2000
  117.6096  122.1112   83.1526 O   0  0  0  0  0  0  0  0  0  0  0  0
  118.2784  123.1648   82.4572 C   0  0  0  0  0  0  0  0  0  0  0  0
  119.5259  123.6049   83.2236 C   0  0  0  0  0  0  0  0  0  0  0  0
  119.3775  123.4359   84.6667 N   0  0  0  0  0  0  0  0  0  0  0  0
  120.3396  123.5429   85.6393 C   0  0  0  0  0  0  0  0  0  0  0  0
  119.9445  124.4884   86.9557 S   0  0  0  0  0  0  0  0  0  0  0  0
  121.4807  122.8165   85.4048 N   0  0  0  0  0  0  0  0  0  0  0  0
  122.5285  122.4037   86.2559 C   0  0  0  0  0  0  0  0  0  0  0  0
  122.1559  121.9284   87.5208 C   0  0  0  0  0  0  0  0  0  0  0  0
  123.1172  121.4814   88.4318 C   0  0  0  0  0  0  0  0  0  0  0  0
  124.4672  121.4882   88.0821 C   0  0  0  0  0  0  0  0  0  0  0  0
  125.6050  120.9221   89.2515 Cl  0  0  0  0  0  0  0  0  0  0  0  0
  124.8476  121.9348   86.8135 C   0  0  0  0  0  0  0  0  0  0  0  0
  126.4987  121.9421   86.2977 Cl  0  0  0  0  0  0  0  0  0  0  0  0
  123.8789  122.3839   85.9042 C   0  0  0  0  0  0  0  0  0  0  0  0
  117.6986  122.2514   84.1286 H   0  0  0  0  0  0  0  0  0  0  0  0
  118.5735  122.8093   81.4589 H   0  0  0  0  0  0  0  0  0  0  0  0
  117.5949  124.0220   82.3677 H   0  0  0  0  0  0  0  0  0  0  0  0
  120.3812  123.0029   82.8830 H   0  0  0  0  0  0  0  0  0  0  0  0
  119.6835  124.6751   83.0243 H   0  0  0  0  0  0  0  0  0  0  0  0
  118.4290  123.2072   84.9967 H   0  0  0  0  0  0  0  0  0  0  0  0
  121.5931  122.5169   84.4258 H   0  0  0  0  0  0  0  0  0  0  0  0
  121.0922  121.9068   87.8004 H   0  0  0  0  0  0  0  0  0  0  0  0
  122.8086  121.1240   89.4253 H   0  0  0  0  0  0  0  0  0  0  0  0
  124.1865  122.7238   84.9043 H   0  0  0  0  0  0  0  0  0  0  0  0
  1  2  1  0
  2  3  1  0
  3  4  1  0
  4  5  1  0
  5  6  2  0
  5  7  1  0
  7  8  1  0
  8  9  2  0
  9 10  1  0
 10 11  2  0
 11 12  1  0
 11 13  1  0
 13 14  1  0
 13 15  2  0
 15  8  1  0
  1 16  1  0
  2 17  1  0
  2 18  1  0
  3 19  1  0
  3 20  1  0
  4 21  1  0
  7 22  1  0
  9 23  1  0
 10 24  1  0
 15 25  1  0
M  END
>  <loss>  (22) 
0.5372934341430664

>  <score>  (22) 
3.1853630542755127

$$$$
UFTYCEAGKXXBJN-UHFFFAOYSA-N
     RDKit          3D

 25 25  0  0  0  0  0  0  0  0999 V2000
  118.2638  122.3392   82.1928 O   0  0  0  0  0  0  0  0  0  0  0  0
  117.8524  122.6241   83.5237 C   0  0  0  0  0  0  0  0  0  0  0  0
  118.4730  123.9320   84.0100 C   0  0  0  0  0  0  0  0  0  0  0  0
  119.4234  123.7308   85.0949 N   0  0  0  0  0  0  0  0  0  0  0  0
  120.7892  123.6470   84.9988 C   0  0  0  0  0  0  0  0  0  0  0  0
  121.5674  125.0048   84.4196 S   0  0  0  0  0  0  0  0  0  0  0  0
  121.3287  122.4604   85.4290 N   0  0  0  0  0  0  0  0  0  0  0  0
  122.3770  122.1891   86.3365 C   0  0  0  0  0  0  0  0  0  0  0  0
  122.0079  121.7968   87.6300 C   0  0  0  0  0  0  0  0  0  0  0  0
  122.9769  121.4892   88.5898 C   0  0  0  0  0  0  0  0  0  0  0  0
  124.3313  121.5523   88.2619 C   0  0  0  0  0  0  0  0  0  0  0  0
  125.4768  121.1582   89.4927 Cl  0  0  0  0  0  0  0  0  0  0  0  0
  124.7099  121.9144   86.9664 C   0  0  0  0  0  0  0  0  0  0  0  0
  126.3672  121.9811   86.4766 Cl  0  0  0  0  0  0  0  0  0  0  0  0
  123.7338  122.2239   86.0084 C   0  0  0  0  0  0  0  0  0  0  0  0
  119.0777  121.7758   82.2125 H   0  0  0  0  0  0  0  0  0  0  0  0
  116.7562  122.7114   83.5523 H   0  0  0  0  0  0  0  0  0  0  0  0
  118.1864  121.8074   84.1805 H   0  0  0  0  0  0  0  0  0  0  0  0
  118.9954  124.4089   83.1676 H   0  0  0  0  0  0  0  0  0  0  0  0
  117.6590  124.5652   84.3929 H   0  0  0  0  0  0  0  0  0  0  0  0
  119.0254  123.6413   86.0406 H   0  0  0  0  0  0  0  0  0  0  0  0
  120.8936  121.6218   85.0187 H   0  0  0  0  0  0  0  0  0  0  0  0
  120.9421  121.7300   87.8937 H   0  0  0  0  0  0  0  0  0  0  0  0
  122.6708  121.1970   89.6051 H   0  0  0  0  0  0  0  0  0  0  0  0
  124.0402  122.4968   84.9877 H   0  0  0  0  0  0  0  0  0  0  0  0
  1  2  1  0
  2  3  1  0
  3  4  1  0
  4  5  1  0
  5  6  2  0
  5  7  1  0
  7  8  1  0
  8  9  2  0
  9 10  1  0
 10 11  2  0
 11 12  1  0
 11 13  1  0
 13 14  1  0
 13 15  2  0
 15  8  1  0
  1 16  1  0
  2 17  1  0
  2 18  1  0
  3 19  1  0
  3 20  1  0
  4 21  1  0
  7 22  1  0
  9 23  1  0
 10 24  1  0
 15 25  1  0
M  END
>  <loss>  (23) 
0.5326130986213684

>  <score>  (23) 
3.160844564437866

$$$$
UFTYCEAGKXXBJN-UHFFFAOYSA-N
     RDKit          3D

 25 25  0  0  0  0  0  0  0  0999 V2000
  116.9905  121.8503   83.7902 O   0  0  0  0  0  0  0  0  0  0  0  0
  117.8955  122.6224   83.0090 C   0  0  0  0  0  0  0  0  0  0  0  0
  118.5025  123.7460   83.8506 C   0  0  0  0  0  0  0  0  0  0  0  0
  119.9558  123.6563   83.9646 N   0  0  0  0  0  0  0  0  0  0  0  0
  120.7085  123.8121   85.1232 C   0  0  0  0  0  0  0  0  0  0  0  0
  120.9314  125.2749   85.8998 S   0  0  0  0  0  0  0  0  0  0  0  0
  121.2782  122.5893   85.4593 N   0  0  0  0  0  0  0  0  0  0  0  0
  122.3178  122.2700   86.3605 C   0  0  0  0  0  0  0  0  0  0  0  0
  123.6250  122.2963   85.8583 C   0  0  0  0  0  0  0  0  0  0  0  0
  124.7118  121.9708   86.6754 C   0  0  0  0  0  0  0  0  0  0  0  0
  124.5022  121.5949   88.0026 C   0  0  0  0  0  0  0  0  0  0  0  0
  125.8873  121.2030   88.9566 Cl  0  0  0  0  0  0  0  0  0  0  0  0
  123.1992  121.5362   88.5044 C   0  0  0  0  0  0  0  0  0  0  0  0
  122.8584  121.0445   90.1269 Cl  0  0  0  0  0  0  0  0  0  0  0  0
  122.1131  121.8657   87.6814 C   0  0  0  0  0  0  0  0  0  0  0  0
  117.1705  122.0039   84.7516 H   0  0  0  0  0  0  0  0  0  0  0  0
  118.7010  121.9713   82.6386 H   0  0  0  0  0  0  0  0  0  0  0  0
  117.3486  123.0655   82.1637 H   0  0  0  0  0  0  0  0  0  0  0  0
  118.2468  124.7093   83.3850 H   0  0  0  0  0  0  0  0  0  0  0  0
  118.0880  123.6558   84.8655 H   0  0  0  0  0  0  0  0  0  0  0  0
  120.4762  123.4574   83.0983 H   0  0  0  0  0  0  0  0  0  0  0  0
  120.8737  121.7793   84.9682 H   0  0  0  0  0  0  0  0  0  0  0  0
  123.7986  122.5762   84.8087 H   0  0  0  0  0  0  0  0  0  0  0  0
  125.7340  122.0112   86.2712 H   0  0  0  0  0  0  0  0  0  0  0  0
  121.0896  121.8052   88.0801 H   0  0  0  0  0  0  0  0  0  0  0  0
  1  2  1  0
  2  3  1  0
  3  4  1  0
  4  5  1  0
  5  6  2  0
  5  7  1  0
  7  8  1  0
  8  9  2  0
  9 10  1  0
 10 11  2  0
 11 12  1  0
 11 13  1  0
 13 14  1  0
 13 15  2  0
 15  8  1  0
  1 16  1  0
  2 17  1  0
  2 18  1  0
  3 19  1  0
  3 20  1  0
  4 21  1  0
  7 22  1  0
  9 23  1  0
 10 24  1  0
 15 25  1  0
M  END
>  <loss>  (24) 
0.5428016781806946

>  <score>  (24) 
3.2089526653289795

$$$$
UFTYCEAGKXXBJN-UHFFFAOYSA-N
     RDKit          3D

 25 25  0  0  0  0  0  0  0  0999 V2000
  117.7466  123.9875   82.4436 O   0  0  0  0  0  0  0  0  0  0  0  0
  117.4667  123.2669   83.6450 C   0  0  0  0  0  0  0  0  0  0  0  0
  118.6558  122.3869   84.0309 C   0  0  0  0  0  0  0  0  0  0  0  0
  119.9330  123.0724   83.8526 N   0  0  0  0  0  0  0  0  0  0  0  0
  120.7609  123.5933   84.8152 C   0  0  0  0  0  0  0  0  0  0  0  0
  121.3600  125.1207   84.5136 S   0  0  0  0  0  0  0  0  0  0  0  0
  120.9436  122.7916   85.9145 N   0  0  0  0  0  0  0  0  0  0  0  0
  122.1059  122.3948   86.6106 C   0  0  0  0  0  0  0  0  0  0  0  0
  121.9159  121.8719   87.8972 C   0  0  0  0  0  0  0  0  0  0  0  0
  123.0013  121.4360   88.6626 C   0  0  0  0  0  0  0  0  0  0  0  0
  124.2938  121.5019   88.1428 C   0  0  0  0  0  0  0  0  0  0  0  0
  125.5914  120.9465   89.1379 Cl  0  0  0  0  0  0  0  0  0  0  0  0
  124.4918  121.9965   86.8506 C   0  0  0  0  0  0  0  0  0  0  0  0
  126.0611  122.0784   86.1276 Cl  0  0  0  0  0  0  0  0  0  0  0  0
  123.3993  122.4342   86.0879 C   0  0  0  0  0  0  0  0  0  0  0  0
  118.0954  124.8857   82.6712 H   0  0  0  0  0  0  0  0  0  0  0  0
  117.2663  123.9812   84.4572 H   0  0  0  0  0  0  0  0  0  0  0  0
  116.5886  122.6256   83.4787 H   0  0  0  0  0  0  0  0  0  0  0  0
  118.5539  122.0978   85.0874 H   0  0  0  0  0  0  0  0  0  0  0  0
  118.6512  121.5064   83.3716 H   0  0  0  0  0  0  0  0  0  0  0  0
  120.2534  123.1786   82.8795 H   0  0  0  0  0  0  0  0  0  0  0  0
  120.0704  122.4085   86.3039 H   0  0  0  0  0  0  0  0  0  0  0  0
  120.8987  121.8036   88.3102 H   0  0  0  0  0  0  0  0  0  0  0  0
  122.8359  121.0408   89.6757 H   0  0  0  0  0  0  0  0  0  0  0  0
  123.5634  122.8121   85.0680 H   0  0  0  0  0  0  0  0  0  0  0  0
  1  2  1  0
  2  3  1  0
  3  4  1  0
  4  5  1  0
  5  6  2  0
  5  7  1  0
  7  8  1  0
  8  9  2  0
  9 10  1  0
 10 11  2  0
 11 12  1  0
 11 13  1  0
 13 14  1  0
 13 15  2  0
 15  8  1  0
  1 16  1  0
  2 17  1  0
  2 18  1  0
  3 19  1  0
  3 20  1  0
  4 21  1  0
  7 22  1  0
  9 23  1  0
 10 24  1  0
 15 25  1  0
M  END
>  <loss>  (25) 
0.5472413897514343

>  <score>  (25) 
3.153297185897827

$$$$
