UIAFDRRSIISFKN-UHFFFAOYSA-N
     RDKit          3D

 35 35  0  0  0  0  0  0  0  0999 V2000
  119.4523  120.6132   89.9080 O   0  0  0  0  0  0  0  0  0  0  0  0
  119.9198  121.7346   90.0098 C   0  0  0  0  0  0  0  0  0  0  0  0
  119.7732  122.4338   91.1533 O   0  0  0  0  0  0  0  0  0  0  0  0
  120.6722  122.5108   88.9713 C   0  0  0  0  0  0  0  0  0  0  0  0
  121.1516  121.5852   87.8569 C   0  0  0  0  0  0  0  0  0  0  0  0
  122.2317  122.2530   87.0919 N   0  0  0  0  0  0  0  0  0  0  0  0
  122.1513  122.0631   85.6239 C   0  0  0  0  0  0  0  0  0  0  0  0
  122.1019  123.4056   84.9012 C   0  0  0  0  0  0  0  0  0  0  0  0
  120.6910  123.7321   84.5146 C   0  0  0  0  0  0  0  0  0  0  0  0
  119.8932  123.0058   83.9465 O   0  0  0  0  0  0  0  0  0  0  0  0
  120.3445  124.9833   84.8746 O   0  0  0  0  0  0  0  0  0  0  0  0
  123.4965  121.9684   87.6469 C   0  0  0  0  0  0  0  0  0  0  0  0
  123.5712  121.7333   89.0269 C   0  0  0  0  0  0  0  0  0  0  0  0
  124.7874  121.4337   89.6422 C   0  0  0  0  0  0  0  0  0  0  0  0
  125.9514  121.3580   88.8789 C   0  0  0  0  0  0  0  0  0  0  0  0
  125.8944  121.5767   87.4985 C   0  0  0  0  0  0  0  0  0  0  0  0
  127.1030  121.5053   86.6430 C   0  0  0  0  0  0  0  0  0  0  0  0
  127.1661  121.0059   85.5359 O   0  0  0  0  0  0  0  0  0  0  0  0
  128.1837  122.0660   87.2143 O   0  0  0  0  0  0  0  0  0  0  0  0
  124.6687  121.8777   86.8871 C   0  0  0  0  0  0  0  0  0  0  0  0
  120.1553  123.3439   91.2294 H   0  0  0  0  0  0  0  0  0  0  0  0
  120.0113  123.2796   88.5444 H   0  0  0  0  0  0  0  0  0  0  0  0
  121.5465  122.9827   89.4433 H   0  0  0  0  0  0  0  0  0  0  0  0
  121.5353  120.6518   88.2947 H   0  0  0  0  0  0  0  0  0  0  0  0
  120.3125  121.3558   87.1836 H   0  0  0  0  0  0  0  0  0  0  0  0
  123.0358  121.5041   85.2844 H   0  0  0  0  0  0  0  0  0  0  0  0
  121.2314  121.5062   85.3923 H   0  0  0  0  0  0  0  0  0  0  0  0
  122.4875  124.1915   85.5673 H   0  0  0  0  0  0  0  0  0  0  0  0
  122.7194  123.3479   83.9928 H   0  0  0  0  0  0  0  0  0  0  0  0
  119.4358  125.3220   84.6754 H   0  0  0  0  0  0  0  0  0  0  0  0
  122.6559  121.7859   89.6348 H   0  0  0  0  0  0  0  0  0  0  0  0
  124.8274  121.2576   90.7272 H   0  0  0  0  0  0  0  0  0  0  0  0
  126.9127  121.1268   89.3611 H   0  0  0  0  0  0  0  0  0  0  0  0
  129.0488  122.0762   86.7331 H   0  0  0  0  0  0  0  0  0  0  0  0
  124.6281  122.0441   85.8005 H   0  0  0  0  0  0  0  0  0  0  0  0
  1  2  2  0
  2  3  1  0
  2  4  1  0
  4  5  1  0
  5  6  1  0
  6  7  1  0
  7  8  1  0
  8  9  1  0
  9 10  2  0
  9 11  1  0
  6 12  1  0
 12 13  2  0
 13 14  1  0
 14 15  2  0
 15 16  1  0
 16 17  1  0
 17 18  2  0
 17 19  1  0
 16 20  2  0
 20 12  1  0
  3 21  1  0
  4 22  1  0
  4 23  1  0
  5 24  1  0
  5 25  1  0
  7 26  1  0
  7 27  1  0
  8 28  1  0
  8 29  1  0
 11 30  1  0
 13 31  1  0
 14 32  1  0
 15 33  1  0
 19 34  1  0
 20 35  1  0
M  END
>  <loss>  (1) 
0.5466815233230591

>  <score>  (1) 
4.322566032409668

$$$$
UIAFDRRSIISFKN-UHFFFAOYSA-N
     RDKit          3D

 35 35  0  0  0  0  0  0  0  0999 V2000
  120.1627  125.0808   84.5463 O   0  0  0  0  0  0  0  0  0  0  0  0
  120.7069  123.9944   84.4343 C   0  0  0  0  0  0  0  0  0  0  0  0
  120.1418  123.0246   83.6914 O   0  0  0  0  0  0  0  0  0  0  0  0
  122.0424  123.6175   84.9977 C   0  0  0  0  0  0  0  0  0  0  0  0
  122.0523  122.1643   85.4584 C   0  0  0  0  0  0  0  0  0  0  0  0
  122.1506  122.0654   86.9291 N   0  0  0  0  0  0  0  0  0  0  0  0
  120.8820  122.1734   87.6794 C   0  0  0  0  0  0  0  0  0  0  0  0
  121.0891  122.7088   89.0936 C   0  0  0  0  0  0  0  0  0  0  0  0
  119.9214  122.4065   89.9869 C   0  0  0  0  0  0  0  0  0  0  0  0
  119.4734  121.3113   90.2804 O   0  0  0  0  0  0  0  0  0  0  0  0
  119.3810  123.5253   90.5100 O   0  0  0  0  0  0  0  0  0  0  0  0
  123.3563  121.7978   87.5722 C   0  0  0  0  0  0  0  0  0  0  0  0
  123.4305  121.5455   88.9542 C   0  0  0  0  0  0  0  0  0  0  0  0
  124.6396  121.2716   89.6084 C   0  0  0  0  0  0  0  0  0  0  0  0
  125.8290  121.2402   88.8923 C   0  0  0  0  0  0  0  0  0  0  0  0
  125.8023  121.4838   87.5208 C   0  0  0  0  0  0  0  0  0  0  0  0
  127.0340  121.4625   86.6953 C   0  0  0  0  0  0  0  0  0  0  0  0
  127.2806  120.6747   85.8005 O   0  0  0  0  0  0  0  0  0  0  0  0
  127.9049  122.4318   87.0286 O   0  0  0  0  0  0  0  0  0  0  0  0
  124.5801  121.7575   86.8800 C   0  0  0  0  0  0  0  0  0  0  0  0
  120.5876  122.1449   83.6039 H   0  0  0  0  0  0  0  0  0  0  0  0
  122.8110  123.7541   84.2227 H   0  0  0  0  0  0  0  0  0  0  0  0
  122.2503  124.2610   85.8653 H   0  0  0  0  0  0  0  0  0  0  0  0
  121.1224  121.6780   85.1285 H   0  0  0  0  0  0  0  0  0  0  0  0
  122.9299  121.6678   85.0188 H   0  0  0  0  0  0  0  0  0  0  0  0
  120.2080  122.8542   87.1386 H   0  0  0  0  0  0  0  0  0  0  0  0
  120.4524  121.1641   87.7612 H   0  0  0  0  0  0  0  0  0  0  0  0
  121.9913  122.2458   89.5199 H   0  0  0  0  0  0  0  0  0  0  0  0
  121.1942  123.8020   89.0307 H   0  0  0  0  0  0  0  0  0  0  0  0
  118.6022  123.4614   91.1178 H   0  0  0  0  0  0  0  0  0  0  0  0
  122.5028  121.5638   89.5450 H   0  0  0  0  0  0  0  0  0  0  0  0
  124.6464  121.0812   90.6917 H   0  0  0  0  0  0  0  0  0  0  0  0
  126.7802  121.0257   89.4015 H   0  0  0  0  0  0  0  0  0  0  0  0
  128.7639  122.5138   86.5432 H   0  0  0  0  0  0  0  0  0  0  0  0
  124.5816  121.9473   85.7965 H   0  0  0  0  0  0  0  0  0  0  0  0
  1  2  2  0
  2  3  1  0
  2  4  1  0
  4  5  1  0
  5  6  1  0
  6  7  1  0
  7  8  1  0
  8  9  1  0
  9 10  2  0
  9 11  1  0
  6 12  1  0
 12 13  2  0
 13 14  1  0
 14 15  2  0
 15 16  1  0
 16 17  1  0
 17 18  2  0
 17 19  1  0
 16 20  2  0
 20 12  1  0
  3 21  1  0
  4 22  1  0
  4 23  1  0
  5 24  1  0
  5 25  1  0
  7 26  1  0
  7 27  1  0
  8 28  1  0
  8 29  1  0
 11 30  1  0
 13 31  1  0
 14 32  1  0
 15 33  1  0
 19 34  1  0
 20 35  1  0
M  END
>  <loss>  (2) 
0.5714035034179688

>  <score>  (2) 
4.229016304016113

$$$$
UIAFDRRSIISFKN-UHFFFAOYSA-N
     RDKit          3D

 35 35  0  0  0  0  0  0  0  0999 V2000
  120.0574  120.8045   91.3333 O   0  0  0  0  0  0  0  0  0  0  0  0
  119.9432  121.2889   90.2196 C   0  0  0  0  0  0  0  0  0  0  0  0
  118.8835  122.0664   89.9217 O   0  0  0  0  0  0  0  0  0  0  0  0
  120.8408  121.0405   89.0458 C   0  0  0  0  0  0  0  0  0  0  0  0
  121.0312  122.2788   88.1776 C   0  0  0  0  0  0  0  0  0  0  0  0
  122.1949  122.1392   87.2794 N   0  0  0  0  0  0  0  0  0  0  0  0
  121.9081  122.2072   85.8319 C   0  0  0  0  0  0  0  0  0  0  0  0
  121.5124  123.6189   85.4136 C   0  0  0  0  0  0  0  0  0  0  0  0
  120.5063  123.5991   84.3033 C   0  0  0  0  0  0  0  0  0  0  0  0
  119.6491  122.7507   84.1154 O   0  0  0  0  0  0  0  0  0  0  0  0
  120.5783  124.6868   83.5124 O   0  0  0  0  0  0  0  0  0  0  0  0
  123.4820  121.9363   87.7672 C   0  0  0  0  0  0  0  0  0  0  0  0
  123.7641  121.8965   89.1444 C   0  0  0  0  0  0  0  0  0  0  0  0
  125.0561  121.6916   89.6470 C   0  0  0  0  0  0  0  0  0  0  0  0
  126.1229  121.5236   88.7762 C   0  0  0  0  0  0  0  0  0  0  0  0
  125.8918  121.5615   87.4030 C   0  0  0  0  0  0  0  0  0  0  0  0
  127.0500  121.3808   86.4956 C   0  0  0  0  0  0  0  0  0  0  0  0
  127.2694  120.4033   85.8040 O   0  0  0  0  0  0  0  0  0  0  0  0
  127.8970  122.4262   86.5045 O   0  0  0  0  0  0  0  0  0  0  0  0
  124.5867  121.7577   86.9148 C   0  0  0  0  0  0  0  0  0  0  0  0
  118.7952  122.4573   89.0164 H   0  0  0  0  0  0  0  0  0  0  0  0
  121.8242  120.7167   89.4173 H   0  0  0  0  0  0  0  0  0  0  0  0
  120.3665  120.2680   88.4228 H   0  0  0  0  0  0  0  0  0  0  0  0
  120.1272  122.4309   87.5697 H   0  0  0  0  0  0  0  0  0  0  0  0
  121.2089  123.1391   88.8397 H   0  0  0  0  0  0  0  0  0  0  0  0
  122.8068  121.9062   85.2736 H   0  0  0  0  0  0  0  0  0  0  0  0
  121.0694  121.5306   85.6110 H   0  0  0  0  0  0  0  0  0  0  0  0
  121.0791  124.1405   86.2798 H   0  0  0  0  0  0  0  0  0  0  0  0
  122.4131  124.1387   85.0550 H   0  0  0  0  0  0  0  0  0  0  0  0
  119.9606  124.7822   82.7446 H   0  0  0  0  0  0  0  0  0  0  0  0
  122.9365  122.0317   89.8563 H   0  0  0  0  0  0  0  0  0  0  0  0
  125.2247  121.6640   90.7337 H   0  0  0  0  0  0  0  0  0  0  0  0
  127.1390  121.3623   89.1653 H   0  0  0  0  0  0  0  0  0  0  0  0
  128.7064  122.4124   85.9347 H   0  0  0  0  0  0  0  0  0  0  0  0
  124.4244  121.7719   85.8269 H   0  0  0  0  0  0  0  0  0  0  0  0
  1  2  2  0
  2  3  1  0
  2  4  1  0
  4  5  1  0
  5  6  1  0
  6  7  1  0
  7  8  1  0
  8  9  1  0
  9 10  2  0
  9 11  1  0
  6 12  1  0
 12 13  2  0
 13 14  1  0
 14 15  2  0
 15 16  1  0
 16 17  1  0
 17 18  2  0
 17 19  1  0
 16 20  2  0
 20 12  1  0
  3 21  1  0
  4 22  1  0
  4 23  1  0
  5 24  1  0
  5 25  1  0
  7 26  1  0
  7 27  1  0
  8 28  1  0
  8 29  1  0
 11 30  1  0
 13 31  1  0
 14 32  1  0
 15 33  1  0
 19 34  1  0
 20 35  1  0
M  END
>  <loss>  (3) 
0.5613998770713806

>  <score>  (3) 
4.140242576599121

$$$$
UIAFDRRSIISFKN-UHFFFAOYSA-N
     RDKit          3D

 35 35  0  0  0  0  0  0  0  0999 V2000
  120.0261  124.7967   84.1075 O   0  0  0  0  0  0  0  0  0  0  0  0
  120.6581  123.7548   84.1718 C   0  0  0  0  0  0  0  0  0  0  0  0
  120.1821  122.6347   83.5971 O   0  0  0  0  0  0  0  0  0  0  0  0
  122.0134  123.5848   84.7861 C   0  0  0  0  0  0  0  0  0  0  0  0
  122.1855  122.1802   85.3533 C   0  0  0  0  0  0  0  0  0  0  0  0
  122.3322  122.2062   86.8230 N   0  0  0  0  0  0  0  0  0  0  0  0
  121.0976  122.4407   87.6007 C   0  0  0  0  0  0  0  0  0  0  0  0
  121.3216  122.2887   89.1028 C   0  0  0  0  0  0  0  0  0  0  0  0
  120.0367  122.0565   89.8431 C   0  0  0  0  0  0  0  0  0  0  0  0
  119.6054  120.9995   90.2711 O   0  0  0  0  0  0  0  0  0  0  0  0
  119.3549  123.2017   90.0457 O   0  0  0  0  0  0  0  0  0  0  0  0
  123.5470  121.9382   87.4486 C   0  0  0  0  0  0  0  0  0  0  0  0
  123.6497  121.7466   88.8385 C   0  0  0  0  0  0  0  0  0  0  0  0
  124.8681  121.4728   89.4754 C   0  0  0  0  0  0  0  0  0  0  0  0
  126.0381  121.3800   88.7334 C   0  0  0  0  0  0  0  0  0  0  0  0
  125.9829  121.5622   87.3531 C   0  0  0  0  0  0  0  0  0  0  0  0
  127.1927  121.4734   86.5003 C   0  0  0  0  0  0  0  0  0  0  0  0
  127.9816  122.3750   86.2836 O   0  0  0  0  0  0  0  0  0  0  0  0
  127.3611  120.2555   85.9550 O   0  0  0  0  0  0  0  0  0  0  0  0
  124.7518  121.8368   86.7299 C   0  0  0  0  0  0  0  0  0  0  0  0
  120.6988  121.7921   83.6522 H   0  0  0  0  0  0  0  0  0  0  0  0
  122.7808  123.7586   84.0174 H   0  0  0  0  0  0  0  0  0  0  0  0
  122.1185  124.3090   85.6074 H   0  0  0  0  0  0  0  0  0  0  0  0
  121.3025  121.5783   85.0924 H   0  0  0  0  0  0  0  0  0  0  0  0
  123.0978  121.7423   84.9221 H   0  0  0  0  0  0  0  0  0  0  0  0
  120.7402  123.4610   87.3978 H   0  0  0  0  0  0  0  0  0  0  0  0
  120.3577  121.6872   87.2928 H   0  0  0  0  0  0  0  0  0  0  0  0
  121.9912  121.4336   89.2771 H   0  0  0  0  0  0  0  0  0  0  0  0
  121.7642  123.2239   89.4763 H   0  0  0  0  0  0  0  0  0  0  0  0
  118.4883  123.1838   90.5241 H   0  0  0  0  0  0  0  0  0  0  0  0
  122.7377  121.8142   89.4498 H   0  0  0  0  0  0  0  0  0  0  0  0
  124.8974  121.3312   90.5659 H   0  0  0  0  0  0  0  0  0  0  0  0
  126.9964  121.1652   89.2289 H   0  0  0  0  0  0  0  0  0  0  0  0
  128.1372  120.0799   85.3659 H   0  0  0  0  0  0  0  0  0  0  0  0
  124.7307  121.9774   85.6392 H   0  0  0  0  0  0  0  0  0  0  0  0
  1  2  2  0
  2  3  1  0
  2  4  1  0
  4  5  1  0
  5  6  1  0
  6  7  1  0
  7  8  1  0
  8  9  1  0
  9 10  2  0
  9 11  1  0
  6 12  1  0
 12 13  2  0
 13 14  1  0
 14 15  2  0
 15 16  1  0
 16 17  1  0
 17 18  2  0
 17 19  1  0
 16 20  2  0
 20 12  1  0
  3 21  1  0
  4 22  1  0
  4 23  1  0
  5 24  1  0
  5 25  1  0
  7 26  1  0
  7 27  1  0
  8 28  1  0
  8 29  1  0
 11 30  1  0
 13 31  1  0
 14 32  1  0
 15 33  1  0
 19 34  1  0
 20 35  1  0
M  END
>  <loss>  (4) 
0.589857816696167

>  <score>  (4) 
4.235060214996338

$$$$
UIAFDRRSIISFKN-UHFFFAOYSA-N
     RDKit          3D

 35 35  0  0  0  0  0  0  0  0999 V2000
  118.9982  120.7637   89.9241 O   0  0  0  0  0  0  0  0  0  0  0  0
  119.8886  121.5931   89.8521 C   0  0  0  0  0  0  0  0  0  0  0  0
  119.7892  122.7643   90.5142 O   0  0  0  0  0  0  0  0  0  0  0  0
  121.1611  121.5002   89.0643 C   0  0  0  0  0  0  0  0  0  0  0  0
  120.8972  121.8071   87.5945 C   0  0  0  0  0  0  0  0  0  0  0  0
  122.1593  122.0238   86.8590 N   0  0  0  0  0  0  0  0  0  0  0  0
  122.0305  122.3333   85.4226 C   0  0  0  0  0  0  0  0  0  0  0  0
  121.8142  123.8224   85.1831 C   0  0  0  0  0  0  0  0  0  0  0  0
  120.5361  124.0074   84.4256 C   0  0  0  0  0  0  0  0  0  0  0  0
  120.0041  123.1817   83.7009 O   0  0  0  0  0  0  0  0  0  0  0  0
  119.9919  125.2279   84.5937 O   0  0  0  0  0  0  0  0  0  0  0  0
  123.3981  121.8763   87.4781 C   0  0  0  0  0  0  0  0  0  0  0  0
  123.5460  121.9146   88.8779 C   0  0  0  0  0  0  0  0  0  0  0  0
  124.7874  121.7658   89.5115 C   0  0  0  0  0  0  0  0  0  0  0  0
  125.9349  121.5691   88.7555 C   0  0  0  0  0  0  0  0  0  0  0  0
  125.8365  121.5224   87.3655 C   0  0  0  0  0  0  0  0  0  0  0  0
  127.0783  121.3039   86.5843 C   0  0  0  0  0  0  0  0  0  0  0  0
  127.2874  120.3773   85.8221 O   0  0  0  0  0  0  0  0  0  0  0  0
  128.0059  122.2566   86.7895 O   0  0  0  0  0  0  0  0  0  0  0  0
  124.5829  121.6757   86.7447 C   0  0  0  0  0  0  0  0  0  0  0  0
  120.5170  123.4324   90.4503 H   0  0  0  0  0  0  0  0  0  0  0  0
  121.8875  122.2245   89.4614 H   0  0  0  0  0  0  0  0  0  0  0  0
  121.5614  120.4792   89.1503 H   0  0  0  0  0  0  0  0  0  0  0  0
  120.3591  120.9609   87.1423 H   0  0  0  0  0  0  0  0  0  0  0  0
  120.2962  122.7263   87.5332 H   0  0  0  0  0  0  0  0  0  0  0  0
  122.9499  122.0193   84.9066 H   0  0  0  0  0  0  0  0  0  0  0  0
  121.1551  121.7931   85.0330 H   0  0  0  0  0  0  0  0  0  0  0  0
  121.7517  124.3470   86.1479 H   0  0  0  0  0  0  0  0  0  0  0  0
  122.6547  124.2345   84.6053 H   0  0  0  0  0  0  0  0  0  0  0  0
  119.1440  125.4589   84.1378 H   0  0  0  0  0  0  0  0  0  0  0  0
  122.6513  122.0676   89.4992 H   0  0  0  0  0  0  0  0  0  0  0  0
  124.8524  121.8049   90.6089 H   0  0  0  0  0  0  0  0  0  0  0  0
  126.9115  121.4514   89.2479 H   0  0  0  0  0  0  0  0  0  0  0  0
  128.8753  122.2107   86.3183 H   0  0  0  0  0  0  0  0  0  0  0  0
  124.5267  121.6373   85.6468 H   0  0  0  0  0  0  0  0  0  0  0  0
  1  2  2  0
  2  3  1  0
  2  4  1  0
  4  5  1  0
  5  6  1  0
  6  7  1  0
  7  8  1  0
  8  9  1  0
  9 10  2  0
  9 11  1  0
  6 12  1  0
 12 13  2  0
 13 14  1  0
 14 15  2  0
 15 16  1  0
 16 17  1  0
 17 18  2  0
 17 19  1  0
 16 20  2  0
 20 12  1  0
  3 21  1  0
  4 22  1  0
  4 23  1  0
  5 24  1  0
  5 25  1  0
  7 26  1  0
  7 27  1  0
  8 28  1  0
  8 29  1  0
 11 30  1  0
 13 31  1  0
 14 32  1  0
 15 33  1  0
 19 34  1  0
 20 35  1  0
M  END
>  <loss>  (5) 
0.5990066528320312

>  <score>  (5) 
4.1368913650512695

$$$$
UIAFDRRSIISFKN-UHFFFAOYSA-N
     RDKit          3D

 35 35  0  0  0  0  0  0  0  0999 V2000
  120.2604  125.1254   84.0301 O   0  0  0  0  0  0  0  0  0  0  0  0
  120.8202  124.0413   84.0464 C   0  0  0  0  0  0  0  0  0  0  0  0
  120.3919  123.0432   83.2513 O   0  0  0  0  0  0  0  0  0  0  0  0
  122.0436  123.6951   84.8379 C   0  0  0  0  0  0  0  0  0  0  0  0
  122.0319  122.2276   85.2508 C   0  0  0  0  0  0  0  0  0  0  0  0
  122.0450  122.0806   86.7206 N   0  0  0  0  0  0  0  0  0  0  0  0
  120.7389  122.1962   87.4024 C   0  0  0  0  0  0  0  0  0  0  0  0
  120.8474  122.9158   88.7440 C   0  0  0  0  0  0  0  0  0  0  0  0
  119.5423  122.9249   89.4853 C   0  0  0  0  0  0  0  0  0  0  0  0
  118.7377  122.0145   89.5861 O   0  0  0  0  0  0  0  0  0  0  0  0
  119.3231  124.0991   90.1103 O   0  0  0  0  0  0  0  0  0  0  0  0
  123.2062  121.7638   87.4207 C   0  0  0  0  0  0  0  0  0  0  0  0
  123.1811  121.3221   88.7562 C   0  0  0  0  0  0  0  0  0  0  0  0
  124.3452  120.9978   89.4666 C   0  0  0  0  0  0  0  0  0  0  0  0
  125.5879  121.1052   88.8565 C   0  0  0  0  0  0  0  0  0  0  0  0
  125.6599  121.5383   87.5342 C   0  0  0  0  0  0  0  0  0  0  0  0
  126.9530  121.6725   86.8211 C   0  0  0  0  0  0  0  0  0  0  0  0
  127.3420  120.9670   85.9085 O   0  0  0  0  0  0  0  0  0  0  0  0
  127.7040  122.6876   87.2845 O   0  0  0  0  0  0  0  0  0  0  0  0
  124.4817  121.8603   86.8358 C   0  0  0  0  0  0  0  0  0  0  0  0
  120.8497  122.1656   83.2685 H   0  0  0  0  0  0  0  0  0  0  0  0
  122.9355  123.8886   84.2240 H   0  0  0  0  0  0  0  0  0  0  0  0
  122.0588  124.3141   85.7470 H   0  0  0  0  0  0  0  0  0  0  0  0
  121.1245  121.7508   84.8516 H   0  0  0  0  0  0  0  0  0  0  0  0
  122.9353  121.7473   84.8469 H   0  0  0  0  0  0  0  0  0  0  0  0
  120.0501  122.7580   86.7543 H   0  0  0  0  0  0  0  0  0  0  0  0
  120.3688  121.1784   87.5953 H   0  0  0  0  0  0  0  0  0  0  0  0
  121.6022  122.4056   89.3604 H   0  0  0  0  0  0  0  0  0  0  0  0
  121.1332  123.9596   88.5472 H   0  0  0  0  0  0  0  0  0  0  0  0
  118.4947  124.2331   90.6356 H   0  0  0  0  0  0  0  0  0  0  0  0
  122.2094  121.2276   89.2630 H   0  0  0  0  0  0  0  0  0  0  0  0
  124.2739  120.6572   90.5101 H   0  0  0  0  0  0  0  0  0  0  0  0
  126.5040  120.8517   89.4102 H   0  0  0  0  0  0  0  0  0  0  0  0
  128.5898  122.8718   86.8824 H   0  0  0  0  0  0  0  0  0  0  0  0
  124.5611  122.2005   85.7927 H   0  0  0  0  0  0  0  0  0  0  0  0
  1  2  2  0
  2  3  1  0
  2  4  1  0
  4  5  1  0
  5  6  1  0
  6  7  1  0
  7  8  1  0
  8  9  1  0
  9 10  2  0
  9 11  1  0
  6 12  1  0
 12 13  2  0
 13 14  1  0
 14 15  2  0
 15 16  1  0
 16 17  1  0
 17 18  2  0
 17 19  1  0
 16 20  2  0
 20 12  1  0
  3 21  1  0
  4 22  1  0
  4 23  1  0
  5 24  1  0
  5 25  1  0
  7 26  1  0
  7 27  1  0
  8 28  1  0
  8 29  1  0
 11 30  1  0
 13 31  1  0
 14 32  1  0
 15 33  1  0
 19 34  1  0
 20 35  1  0
M  END
>  <loss>  (6) 
0.5781550407409668

>  <score>  (6) 
3.8699748516082764

$$$$
UIAFDRRSIISFKN-UHFFFAOYSA-N
     RDKit          3D

 35 35  0  0  0  0  0  0  0  0999 V2000
  119.0961  120.2866   89.1543 O   0  0  0  0  0  0  0  0  0  0  0  0
  119.5337  121.3863   89.4466 C   0  0  0  0  0  0  0  0  0  0  0  0
  119.2363  121.9445   90.6374 O   0  0  0  0  0  0  0  0  0  0  0  0
  120.4011  122.2786   88.6109 C   0  0  0  0  0  0  0  0  0  0  0  0
  121.0596  121.4825   87.4878 C   0  0  0  0  0  0  0  0  0  0  0  0
  122.1498  122.2874   86.8866 N   0  0  0  0  0  0  0  0  0  0  0  0
  122.1722  122.2797   85.4044 C   0  0  0  0  0  0  0  0  0  0  0  0
  121.9214  123.6773   84.8470 C   0  0  0  0  0  0  0  0  0  0  0  0
  120.6036  123.7198   84.1340 C   0  0  0  0  0  0  0  0  0  0  0  0
  120.2495  123.0300   83.1931 O   0  0  0  0  0  0  0  0  0  0  0  0
  119.7760  124.6463   84.6555 O   0  0  0  0  0  0  0  0  0  0  0  0
  123.3900  121.9909   87.4889 C   0  0  0  0  0  0  0  0  0  0  0  0
  123.4116  121.7631   88.8719 C   0  0  0  0  0  0  0  0  0  0  0  0
  124.6009  121.4525   89.5326 C   0  0  0  0  0  0  0  0  0  0  0  0
  125.7909  121.3584   88.8127 C   0  0  0  0  0  0  0  0  0  0  0  0
  125.7867  121.5696   87.4299 C   0  0  0  0  0  0  0  0  0  0  0  0
  127.0246  121.4785   86.6194 C   0  0  0  0  0  0  0  0  0  0  0  0
  127.2616  120.6422   85.7687 O   0  0  0  0  0  0  0  0  0  0  0  0
  127.9144  122.4440   86.9107 O   0  0  0  0  0  0  0  0  0  0  0  0
  124.5878  121.8816   86.7727 C   0  0  0  0  0  0  0  0  0  0  0  0
  119.5949  122.8378   90.8686 H   0  0  0  0  0  0  0  0  0  0  0  0
  119.7842  123.0781   88.1746 H   0  0  0  0  0  0  0  0  0  0  0  0
  121.1861  122.7112   89.2485 H   0  0  0  0  0  0  0  0  0  0  0  0
  121.4746  120.5485   87.8946 H   0  0  0  0  0  0  0  0  0  0  0  0
  120.3107  121.2454   86.7177 H   0  0  0  0  0  0  0  0  0  0  0  0
  123.1560  121.9267   85.0613 H   0  0  0  0  0  0  0  0  0  0  0  0
  121.3762  121.6108   85.0452 H   0  0  0  0  0  0  0  0  0  0  0  0
  121.9108  124.4023   85.6742 H   0  0  0  0  0  0  0  0  0  0  0  0
  122.7226  123.9304   84.1370 H   0  0  0  0  0  0  0  0  0  0  0  0
  118.8720  124.7741   84.2727 H   0  0  0  0  0  0  0  0  0  0  0  0
  122.4756  121.8303   89.4459 H   0  0  0  0  0  0  0  0  0  0  0  0
  124.5994  121.2824   90.6194 H   0  0  0  0  0  0  0  0  0  0  0  0
  126.7312  121.1185   89.3308 H   0  0  0  0  0  0  0  0  0  0  0  0
  128.7791  122.4815   86.4303 H   0  0  0  0  0  0  0  0  0  0  0  0
  124.5887  122.0421   85.6844 H   0  0  0  0  0  0  0  0  0  0  0  0
  1  2  2  0
  2  3  1  0
  2  4  1  0
  4  5  1  0
  5  6  1  0
  6  7  1  0
  7  8  1  0
  8  9  1  0
  9 10  2  0
  9 11  1  0
  6 12  1  0
 12 13  2  0
 13 14  1  0
 14 15  2  0
 15 16  1  0
 16 17  1  0
 17 18  2  0
 17 19  1  0
 16 20  2  0
 20 12  1  0
  3 21  1  0
  4 22  1  0
  4 23  1  0
  5 24  1  0
  5 25  1  0
  7 26  1  0
  7 27  1  0
  8 28  1  0
  8 29  1  0
 11 30  1  0
 13 31  1  0
 14 32  1  0
 15 33  1  0
 19 34  1  0
 20 35  1  0
M  END
>  <loss>  (7) 
0.5614234209060669

>  <score>  (7) 
3.7466371059417725

$$$$
UIAFDRRSIISFKN-UHFFFAOYSA-N
     RDKit          3D

 35 35  0  0  0  0  0  0  0  0999 V2000
  119.4296  119.0921   88.7348 O   0  0  0  0  0  0  0  0  0  0  0  0
  119.3809  120.2862   88.4901 C   0  0  0  0  0  0  0  0  0  0  0  0
  118.6548  121.1112   89.2701 O   0  0  0  0  0  0  0  0  0  0  0  0
  119.9916  120.9771   87.3090 C   0  0  0  0  0  0  0  0  0  0  0  0
  120.8431  122.1778   87.7047 C   0  0  0  0  0  0  0  0  0  0  0  0
  122.1055  122.2247   86.9400 N   0  0  0  0  0  0  0  0  0  0  0  0
  121.9791  122.5204   85.4982 C   0  0  0  0  0  0  0  0  0  0  0  0
  121.1695  123.7909   85.2645 C   0  0  0  0  0  0  0  0  0  0  0  0
  120.6061  123.8335   83.8767 C   0  0  0  0  0  0  0  0  0  0  0  0
  119.9708  122.9501   83.3237 O   0  0  0  0  0  0  0  0  0  0  0  0
  120.8090  125.0164   83.2655 O   0  0  0  0  0  0  0  0  0  0  0  0
  123.3387  121.9854   87.5382 C   0  0  0  0  0  0  0  0  0  0  0  0
  123.4953  121.9252   88.9345 C   0  0  0  0  0  0  0  0  0  0  0  0
  124.7320  121.6837   89.5479 C   0  0  0  0  0  0  0  0  0  0  0  0
  125.8681  121.4980   88.7738 C   0  0  0  0  0  0  0  0  0  0  0  0
  125.7618  121.5551   87.3860 C   0  0  0  0  0  0  0  0  0  0  0  0
  126.9919  121.3548   86.5835 C   0  0  0  0  0  0  0  0  0  0  0  0
  127.3976  120.2912   86.1520 O   0  0  0  0  0  0  0  0  0  0  0  0
  127.6744  122.4942   86.3685 O   0  0  0  0  0  0  0  0  0  0  0  0
  124.5107  121.7881   86.7857 C   0  0  0  0  0  0  0  0  0  0  0  0
  118.6185  122.0795   89.0674 H   0  0  0  0  0  0  0  0  0  0  0  0
  120.6261  120.2581   86.7702 H   0  0  0  0  0  0  0  0  0  0  0  0
  119.1693  121.3466   86.6788 H   0  0  0  0  0  0  0  0  0  0  0  0
  120.2738  123.0988   87.5106 H   0  0  0  0  0  0  0  0  0  0  0  0
  121.0910  122.0869   88.7726 H   0  0  0  0  0  0  0  0  0  0  0  0
  122.9837  122.6511   85.0695 H   0  0  0  0  0  0  0  0  0  0  0  0
  121.4573  121.6812   85.0151 H   0  0  0  0  0  0  0  0  0  0  0  0
  120.3416  123.8258   85.9880 H   0  0  0  0  0  0  0  0  0  0  0  0
  121.8375  124.6554   85.3933 H   0  0  0  0  0  0  0  0  0  0  0  0
  120.4792  125.1600   82.3432 H   0  0  0  0  0  0  0  0  0  0  0  0
  122.6108  122.0738   89.5713 H   0  0  0  0  0  0  0  0  0  0  0  0
  124.8020  121.6413   90.6449 H   0  0  0  0  0  0  0  0  0  0  0  0
  126.8412  121.3079   89.2501 H   0  0  0  0  0  0  0  0  0  0  0  0
  128.5134  122.4771   85.8432 H   0  0  0  0  0  0  0  0  0  0  0  0
  124.4467  121.8169   85.6880 H   0  0  0  0  0  0  0  0  0  0  0  0
  1  2  2  0
  2  3  1  0
  2  4  1  0
  4  5  1  0
  5  6  1  0
  6  7  1  0
  7  8  1  0
  8  9  1  0
  9 10  2  0
  9 11  1  0
  6 12  1  0
 12 13  2  0
 13 14  1  0
 14 15  2  0
 15 16  1  0
 16 17  1  0
 17 18  2  0
 17 19  1  0
 16 20  2  0
 20 12  1  0
  3 21  1  0
  4 22  1  0
  4 23  1  0
  5 24  1  0
  5 25  1  0
  7 26  1  0
  7 27  1  0
  8 28  1  0
  8 29  1  0
 11 30  1  0
 13 31  1  0
 14 32  1  0
 15 33  1  0
 19 34  1  0
 20 35  1  0
M  END
>  <loss>  (8) 
0.5751969814300537

>  <score>  (8) 
3.7961044311523438

$$$$
UIAFDRRSIISFKN-UHFFFAOYSA-N
     RDKit          3D

 35 35  0  0  0  0  0  0  0  0999 V2000
  120.4426  124.8641   83.4211 O   0  0  0  0  0  0  0  0  0  0  0  0
  120.8873  123.7800   83.7615 C   0  0  0  0  0  0  0  0  0  0  0  0
  120.2883  122.6434   83.3604 O   0  0  0  0  0  0  0  0  0  0  0  0
  122.1357  123.5520   84.5569 C   0  0  0  0  0  0  0  0  0  0  0  0
  122.1676  122.1413   85.1340 C   0  0  0  0  0  0  0  0  0  0  0  0
  122.2251  122.1635   86.6100 N   0  0  0  0  0  0  0  0  0  0  0  0
  120.9655  122.4916   87.3099 C   0  0  0  0  0  0  0  0  0  0  0  0
  121.1548  123.5793   88.3638 C   0  0  0  0  0  0  0  0  0  0  0  0
  120.1138  123.5053   89.4426 C   0  0  0  0  0  0  0  0  0  0  0  0
  120.0575  122.7148   90.3691 O   0  0  0  0  0  0  0  0  0  0  0  0
  119.1882  124.4779   89.3208 O   0  0  0  0  0  0  0  0  0  0  0  0
  123.3761  121.8103   87.3095 C   0  0  0  0  0  0  0  0  0  0  0  0
  123.3351  121.3434   88.6360 C   0  0  0  0  0  0  0  0  0  0  0  0
  124.4887  120.9824   89.3458 C   0  0  0  0  0  0  0  0  0  0  0  0
  125.7366  121.0771   88.7441 C   0  0  0  0  0  0  0  0  0  0  0  0
  125.8242  121.5343   87.4308 C   0  0  0  0  0  0  0  0  0  0  0  0
  127.1235  121.6567   86.7270 C   0  0  0  0  0  0  0  0  0  0  0  0
  127.8971  122.5928   86.8130 O   0  0  0  0  0  0  0  0  0  0  0  0
  127.3970  120.5978   85.9439 O   0  0  0  0  0  0  0  0  0  0  0  0
  124.6563  121.8929   86.7330 C   0  0  0  0  0  0  0  0  0  0  0  0
  120.6532  121.7664   83.6395 H   0  0  0  0  0  0  0  0  0  0  0  0
  123.0091  123.6927   83.9031 H   0  0  0  0  0  0  0  0  0  0  0  0
  122.1564  124.2710   85.3891 H   0  0  0  0  0  0  0  0  0  0  0  0
  121.2600  121.6053   84.8193 H   0  0  0  0  0  0  0  0  0  0  0  0
  123.0696  121.6348   84.7602 H   0  0  0  0  0  0  0  0  0  0  0  0
  120.2300  122.8402   86.5699 H   0  0  0  0  0  0  0  0  0  0  0  0
  120.6190  121.5824   87.8231 H   0  0  0  0  0  0  0  0  0  0  0  0
  122.1484  123.4618   88.8207 H   0  0  0  0  0  0  0  0  0  0  0  0
  121.0584  124.5552   87.8655 H   0  0  0  0  0  0  0  0  0  0  0  0
  118.4454  124.5387   89.9723 H   0  0  0  0  0  0  0  0  0  0  0  0
  122.3590  121.2583   89.1360 H   0  0  0  0  0  0  0  0  0  0  0  0
  124.4052  120.6231   90.3821 H   0  0  0  0  0  0  0  0  0  0  0  0
  126.6445  120.7948   89.2973 H   0  0  0  0  0  0  0  0  0  0  0  0
  128.2397  120.5705   85.4249 H   0  0  0  0  0  0  0  0  0  0  0  0
  124.7480  122.2516   85.6972 H   0  0  0  0  0  0  0  0  0  0  0  0
  1  2  2  0
  2  3  1  0
  2  4  1  0
  4  5  1  0
  5  6  1  0
  6  7  1  0
  7  8  1  0
  8  9  1  0
  9 10  2  0
  9 11  1  0
  6 12  1  0
 12 13  2  0
 13 14  1  0
 14 15  2  0
 15 16  1  0
 16 17  1  0
 17 18  2  0
 17 19  1  0
 16 20  2  0
 20 12  1  0
  3 21  1  0
  4 22  1  0
  4 23  1  0
  5 24  1  0
  5 25  1  0
  7 26  1  0
  7 27  1  0
  8 28  1  0
  8 29  1  0
 11 30  1  0
 13 31  1  0
 14 32  1  0
 15 33  1  0
 19 34  1  0
 20 35  1  0
M  END
>  <loss>  (9) 
0.5970380902290344

>  <score>  (9) 
3.7629806995391846

$$$$
UIAFDRRSIISFKN-UHFFFAOYSA-N
     RDKit          3D

 35 35  0  0  0  0  0  0  0  0999 V2000
  120.4502  124.5318   83.6782 O   0  0  0  0  0  0  0  0  0  0  0  0
  120.5580  123.3183   83.7255 C   0  0  0  0  0  0  0  0  0  0  0  0
  119.5329  122.5272   83.3497 O   0  0  0  0  0  0  0  0  0  0  0  0
  121.7400  122.5212   84.1884 C   0  0  0  0  0  0  0  0  0  0  0  0
  122.3411  123.1406   85.4470 C   0  0  0  0  0  0  0  0  0  0  0  0
  122.0258  122.2852   86.6162 N   0  0  0  0  0  0  0  0  0  0  0  0
  120.9632  122.8215   87.4997 C   0  0  0  0  0  0  0  0  0  0  0  0
  120.4204  121.7352   88.4229 C   0  0  0  0  0  0  0  0  0  0  0  0
  119.2864  122.2732   89.2422 C   0  0  0  0  0  0  0  0  0  0  0  0
  119.1639  123.4034   89.6829 O   0  0  0  0  0  0  0  0  0  0  0  0
  118.3390  121.3422   89.4675 O   0  0  0  0  0  0  0  0  0  0  0  0
  123.2014  121.8953   87.2905 C   0  0  0  0  0  0  0  0  0  0  0  0
  123.0804  121.4294   88.6071 C   0  0  0  0  0  0  0  0  0  0  0  0
  124.1995  121.0151   89.3307 C   0  0  0  0  0  0  0  0  0  0  0  0
  125.4617  121.0552   88.7404 C   0  0  0  0  0  0  0  0  0  0  0  0
  125.6004  121.5047   87.4230 C   0  0  0  0  0  0  0  0  0  0  0  0
  126.9198  121.5639   86.7499 C   0  0  0  0  0  0  0  0  0  0  0  0
  127.3220  120.7954   85.8974 O   0  0  0  0  0  0  0  0  0  0  0  0
  127.6801  122.5885   87.1754 O   0  0  0  0  0  0  0  0  0  0  0  0
  124.4714  121.9199   86.7022 C   0  0  0  0  0  0  0  0  0  0  0  0
  119.6269  121.5425   83.3905 H   0  0  0  0  0  0  0  0  0  0  0  0
  121.4192  121.4924   84.4088 H   0  0  0  0  0  0  0  0  0  0  0  0
  122.5011  122.5187   83.3943 H   0  0  0  0  0  0  0  0  0  0  0  0
  123.4324  123.2179   85.3326 H   0  0  0  0  0  0  0  0  0  0  0  0
  121.9171  124.1438   85.6010 H   0  0  0  0  0  0  0  0  0  0  0  0
  121.3797  123.6368   88.1094 H   0  0  0  0  0  0  0  0  0  0  0  0
  120.1393  123.1921   86.8721 H   0  0  0  0  0  0  0  0  0  0  0  0
  120.0625  120.8892   87.8178 H   0  0  0  0  0  0  0  0  0  0  0  0
  121.2237  121.4012   89.0962 H   0  0  0  0  0  0  0  0  0  0  0  0
  117.5353  121.5722   89.9979 H   0  0  0  0  0  0  0  0  0  0  0  0
  122.0870  121.3898   89.0778 H   0  0  0  0  0  0  0  0  0  0  0  0
  124.0858  120.6577   90.3648 H   0  0  0  0  0  0  0  0  0  0  0  0
  126.3467  120.7339   89.3092 H   0  0  0  0  0  0  0  0  0  0  0  0
  128.5834  122.7262   86.7944 H   0  0  0  0  0  0  0  0  0  0  0  0
  124.5848  122.2680   85.6649 H   0  0  0  0  0  0  0  0  0  0  0  0
  1  2  2  0
  2  3  1  0
  2  4  1  0
  4  5  1  0
  5  6  1  0
  6  7  1  0
  7  8  1  0
  8  9  1  0
  9 10  2  0
  9 11  1  0
  6 12  1  0
 12 13  2  0
 13 14  1  0
 14 15  2  0
 15 16  1  0
 16 17  1  0
 17 18  2  0
 17 19  1  0
 16 20  2  0
 20 12  1  0
  3 21  1  0
  4 22  1  0
  4 23  1  0
  5 24  1  0
  5 25  1  0
  7 26  1  0
  7 27  1  0
  8 28  1  0
  8 29  1  0
 11 30  1  0
 13 31  1  0
 14 32  1  0
 15 33  1  0
 19 34  1  0
 20 35  1  0
M  END
>  <loss>  (10) 
0.5938667058944702

>  <score>  (10) 
3.745151996612549

$$$$
UIAFDRRSIISFKN-UHFFFAOYSA-N
     RDKit          3D

 35 35  0  0  0  0  0  0  0  0999 V2000
  120.4388  124.7783   83.6583 O   0  0  0  0  0  0  0  0  0  0  0  0
  120.5038  123.5609   83.6575 C   0  0  0  0  0  0  0  0  0  0  0  0
  119.4218  122.8200   83.3438 O   0  0  0  0  0  0  0  0  0  0  0  0
  121.6888  122.7069   83.9942 C   0  0  0  0  0  0  0  0  0  0  0  0
  122.3221  123.1660   85.3045 C   0  0  0  0  0  0  0  0  0  0  0  0
  122.0901  122.1408   86.3499 N   0  0  0  0  0  0  0  0  0  0  0  0
  120.9003  122.3886   87.1986 C   0  0  0  0  0  0  0  0  0  0  0  0
  120.5993  121.1827   88.0830 C   0  0  0  0  0  0  0  0  0  0  0  0
  119.7359  121.5921   89.2379 C   0  0  0  0  0  0  0  0  0  0  0  0
  119.5181  122.7248   89.6329 O   0  0  0  0  0  0  0  0  0  0  0  0
  119.1730  120.5318   89.8494 O   0  0  0  0  0  0  0  0  0  0  0  0
  123.2731  121.8744   87.0699 C   0  0  0  0  0  0  0  0  0  0  0  0
  123.1565  121.5441   88.4273 C   0  0  0  0  0  0  0  0  0  0  0  0
  124.2835  121.2562   89.1983 C   0  0  0  0  0  0  0  0  0  0  0  0
  125.5497  121.2885   88.6161 C   0  0  0  0  0  0  0  0  0  0  0  0
  125.6847  121.6034   87.2599 C   0  0  0  0  0  0  0  0  0  0  0  0
  127.0082  121.6486   86.5937 C   0  0  0  0  0  0  0  0  0  0  0  0
  127.3280  121.0290   85.5973 O   0  0  0  0  0  0  0  0  0  0  0  0
  127.8762  122.4726   87.2073 O   0  0  0  0  0  0  0  0  0  0  0  0
  124.5477  121.8920   86.4914 C   0  0  0  0  0  0  0  0  0  0  0  0
  119.4813  121.8318   83.3450 H   0  0  0  0  0  0  0  0  0  0  0  0
  121.3642  121.6608   84.0958 H   0  0  0  0  0  0  0  0  0  0  0  0
  122.4325  122.7960   83.1886 H   0  0  0  0  0  0  0  0  0  0  0  0
  123.4038  123.3048   85.1604 H   0  0  0  0  0  0  0  0  0  0  0  0
  121.8693  124.1184   85.6173 H   0  0  0  0  0  0  0  0  0  0  0  0
  121.0896  123.2644   87.8367 H   0  0  0  0  0  0  0  0  0  0  0  0
  120.0344  122.5685   86.5446 H   0  0  0  0  0  0  0  0  0  0  0  0
  120.0752  120.4187   87.4901 H   0  0  0  0  0  0  0  0  0  0  0  0
  121.5453  120.7743   88.4684 H   0  0  0  0  0  0  0  0  0  0  0  0
  118.5784  120.6682   90.6291 H   0  0  0  0  0  0  0  0  0  0  0  0
  122.1602  121.5112   88.8923 H   0  0  0  0  0  0  0  0  0  0  0  0
  124.1729  121.0043   90.2634 H   0  0  0  0  0  0  0  0  0  0  0  0
  126.4408  121.0669   89.2219 H   0  0  0  0  0  0  0  0  0  0  0  0
  128.7927  122.5818   86.8492 H   0  0  0  0  0  0  0  0  0  0  0  0
  124.6585  122.1343   85.4241 H   0  0  0  0  0  0  0  0  0  0  0  0
  1  2  2  0
  2  3  1  0
  2  4  1  0
  4  5  1  0
  5  6  1  0
  6  7  1  0
  7  8  1  0
  8  9  1  0
  9 10  2  0
  9 11  1  0
  6 12  1  0
 12 13  2  0
 13 14  1  0
 14 15  2  0
 15 16  1  0
 16 17  1  0
 17 18  2  0
 17 19  1  0
 16 20  2  0
 20 12  1  0
  3 21  1  0
  4 22  1  0
  4 23  1  0
  5 24  1  0
  5 25  1  0
  7 26  1  0
  7 27  1  0
  8 28  1  0
  8 29  1  0
 11 30  1  0
 13 31  1  0
 14 32  1  0
 15 33  1  0
 19 34  1  0
 20 35  1  0
M  END
>  <loss>  (11) 
0.5890067219734192

>  <score>  (11) 
3.605586290359497

$$$$
UIAFDRRSIISFKN-UHFFFAOYSA-N
     RDKit          3D

 35 35  0  0  0  0  0  0  0  0999 V2000
  118.9694  122.2340   89.5256 O   0  0  0  0  0  0  0  0  0  0  0  0
  119.6972  123.1737   89.2553 C   0  0  0  0  0  0  0  0  0  0  0  0
  119.3725  124.4250   89.6410 O   0  0  0  0  0  0  0  0  0  0  0  0
  120.9843  123.1397   88.4866 C   0  0  0  0  0  0  0  0  0  0  0  0
  120.7724  122.4804   87.1285 C   0  0  0  0  0  0  0  0  0  0  0  0
  122.0580  122.2543   86.4379 N   0  0  0  0  0  0  0  0  0  0  0  0
  122.0423  122.3978   84.9700 C   0  0  0  0  0  0  0  0  0  0  0  0
  122.2229  123.8491   84.5426 C   0  0  0  0  0  0  0  0  0  0  0  0
  121.0898  124.2300   83.6413 C   0  0  0  0  0  0  0  0  0  0  0  0
  120.3864  123.4604   83.0064 O   0  0  0  0  0  0  0  0  0  0  0  0
  120.9018  125.5612   83.5592 O   0  0  0  0  0  0  0  0  0  0  0  0
  123.1995  121.8626   87.1330 C   0  0  0  0  0  0  0  0  0  0  0  0
  123.1356  121.2906   88.4181 C   0  0  0  0  0  0  0  0  0  0  0  0
  124.2776  120.8914   89.1260 C   0  0  0  0  0  0  0  0  0  0  0  0
  125.5362  121.0518   88.5628 C   0  0  0  0  0  0  0  0  0  0  0  0
  125.6482  121.6125   87.2911 C   0  0  0  0  0  0  0  0  0  0  0  0
  127.0053  121.7648   86.7121 C   0  0  0  0  0  0  0  0  0  0  0  0
  127.4435  121.1563   85.7524 O   0  0  0  0  0  0  0  0  0  0  0  0
  127.7563  122.6748   87.3587 O   0  0  0  0  0  0  0  0  0  0  0  0
  124.4919  122.0099   86.5945 C   0  0  0  0  0  0  0  0  0  0  0  0
  119.9693  125.1825   89.4173 H   0  0  0  0  0  0  0  0  0  0  0  0
  121.3456  124.1681   88.3383 H   0  0  0  0  0  0  0  0  0  0  0  0
  121.7252  122.5583   89.0549 H   0  0  0  0  0  0  0  0  0  0  0  0
  120.2683  121.5135   87.2739 H   0  0  0  0  0  0  0  0  0  0  0  0
  120.1571  123.1494   86.5088 H   0  0  0  0  0  0  0  0  0  0  0  0
  122.8594  121.7968   84.5445 H   0  0  0  0  0  0  0  0  0  0  0  0
  121.0650  122.0517   84.6025 H   0  0  0  0  0  0  0  0  0  0  0  0
  122.2240  124.4988   85.4303 H   0  0  0  0  0  0  0  0  0  0  0  0
  123.1792  123.9667   84.0117 H   0  0  0  0  0  0  0  0  0  0  0  0
  120.1780  125.9247   82.9899 H   0  0  0  0  0  0  0  0  0  0  0  0
  122.1495  121.1514   88.8854 H   0  0  0  0  0  0  0  0  0  0  0  0
  124.1765  120.4506   90.1287 H   0  0  0  0  0  0  0  0  0  0  0  0
  126.4356  120.7399   89.1139 H   0  0  0  0  0  0  0  0  0  0  0  0
  128.6812  122.8579   87.0568 H   0  0  0  0  0  0  0  0  0  0  0  0
  124.6018  122.4517   85.5931 H   0  0  0  0  0  0  0  0  0  0  0  0
  1  2  2  0
  2  3  1  0
  2  4  1  0
  4  5  1  0
  5  6  1  0
  6  7  1  0
  7  8  1  0
  8  9  1  0
  9 10  2  0
  9 11  1  0
  6 12  1  0
 12 13  2  0
 13 14  1  0
 14 15  2  0
 15 16  1  0
 16 17  1  0
 17 18  2  0
 17 19  1  0
 16 20  2  0
 20 12  1  0
  3 21  1  0
  4 22  1  0
  4 23  1  0
  5 24  1  0
  5 25  1  0
  7 26  1  0
  7 27  1  0
  8 28  1  0
  8 29  1  0
 11 30  1  0
 13 31  1  0
 14 32  1  0
 15 33  1  0
 19 34  1  0
 20 35  1  0
M  END
>  <loss>  (12) 
0.6014589071273804

>  <score>  (12) 
3.54608154296875

$$$$
UIAFDRRSIISFKN-UHFFFAOYSA-N
     RDKit          3D

 35 35  0  0  0  0  0  0  0  0999 V2000
  120.4715  126.0038   85.4319 O   0  0  0  0  0  0  0  0  0  0  0  0
  121.4545  125.7792   84.7453 C   0  0  0  0  0  0  0  0  0  0  0  0
  122.3486  126.7567   84.4975 O   0  0  0  0  0  0  0  0  0  0  0  0
  121.7643  124.5009   84.0277 C   0  0  0  0  0  0  0  0  0  0  0  0
  122.9120  123.7292   84.6683 C   0  0  0  0  0  0  0  0  0  0  0  0
  122.4225  122.7502   85.6595 N   0  0  0  0  0  0  0  0  0  0  0  0
  121.0170  122.3217   85.5076 C   0  0  0  0  0  0  0  0  0  0  0  0
  120.6459  122.1582   84.0379 C   0  0  0  0  0  0  0  0  0  0  0  0
  119.8638  120.9011   83.8073 C   0  0  0  0  0  0  0  0  0  0  0  0
  118.9070  120.5118   84.4575 O   0  0  0  0  0  0  0  0  0  0  0  0
  120.2784  120.2182   82.7230 O   0  0  0  0  0  0  0  0  0  0  0  0
  123.2313  122.2746   86.6869 C   0  0  0  0  0  0  0  0  0  0  0  0
  122.7282  122.0004   87.9712 C   0  0  0  0  0  0  0  0  0  0  0  0
  123.5331  121.5200   89.0130 C   0  0  0  0  0  0  0  0  0  0  0  0
  124.8867  121.3012   88.8022 C   0  0  0  0  0  0  0  0  0  0  0  0
  125.4305  121.5648   87.5470 C   0  0  0  0  0  0  0  0  0  0  0  0
  126.8798  121.3237   87.3503 C   0  0  0  0  0  0  0  0  0  0  0  0
  127.7204  121.2704   88.2291 O   0  0  0  0  0  0  0  0  0  0  0  0
  127.2206  121.1762   86.0570 O   0  0  0  0  0  0  0  0  0  0  0  0
  124.6063  122.0368   86.5088 C   0  0  0  0  0  0  0  0  0  0  0  0
  123.1448  126.5695   83.9397 H   0  0  0  0  0  0  0  0  0  0  0  0
  120.8659  123.8662   84.0358 H   0  0  0  0  0  0  0  0  0  0  0  0
  122.0699  124.7608   83.0034 H   0  0  0  0  0  0  0  0  0  0  0  0
  123.4656  123.1948   83.8822 H   0  0  0  0  0  0  0  0  0  0  0  0
  123.5627  124.4483   85.1874 H   0  0  0  0  0  0  0  0  0  0  0  0
  120.8778  121.3593   86.0219 H   0  0  0  0  0  0  0  0  0  0  0  0
  120.3682  123.0938   85.9468 H   0  0  0  0  0  0  0  0  0  0  0  0
  120.0385  123.0201   83.7243 H   0  0  0  0  0  0  0  0  0  0  0  0
  121.5745  122.1005   83.4510 H   0  0  0  0  0  0  0  0  0  0  0  0
  119.8339  119.3699   82.4724 H   0  0  0  0  0  0  0  0  0  0  0  0
  121.6590  122.1698   88.1660 H   0  0  0  0  0  0  0  0  0  0  0  0
  123.0910  121.3161   89.9994 H   0  0  0  0  0  0  0  0  0  0  0  0
  125.5230  120.9241   89.6164 H   0  0  0  0  0  0  0  0  0  0  0  0
  128.1648  121.0105   85.8097 H   0  0  0  0  0  0  0  0  0  0  0  0
  125.0535  122.2267   85.5219 H   0  0  0  0  0  0  0  0  0  0  0  0
  1  2  2  0
  2  3  1  0
  2  4  1  0
  4  5  1  0
  5  6  1  0
  6  7  1  0
  7  8  1  0
  8  9  1  0
  9 10  2  0
  9 11  1  0
  6 12  1  0
 12 13  2  0
 13 14  1  0
 14 15  2  0
 15 16  1  0
 16 17  1  0
 17 18  2  0
 17 19  1  0
 16 20  2  0
 20 12  1  0
  3 21  1  0
  4 22  1  0
  4 23  1  0
  5 24  1  0
  5 25  1  0
  7 26  1  0
  7 27  1  0
  8 28  1  0
  8 29  1  0
 11 30  1  0
 13 31  1  0
 14 32  1  0
 15 33  1  0
 19 34  1  0
 20 35  1  0
M  END
>  <loss>  (13) 
0.6013535857200623

>  <score>  (13) 
3.3819985389709473

$$$$
UIAFDRRSIISFKN-UHFFFAOYSA-N
     RDKit          3D

 35 35  0  0  0  0  0  0  0  0999 V2000
  121.6938  126.9334   85.6001 O   0  0  0  0  0  0  0  0  0  0  0  0
  122.1653  126.2896   84.6773 C   0  0  0  0  0  0  0  0  0  0  0  0
  123.0832  126.8437   83.8608 O   0  0  0  0  0  0  0  0  0  0  0  0
  121.7623  124.9081   84.2600 C   0  0  0  0  0  0  0  0  0  0  0  0
  122.8060  123.8567   84.6184 C   0  0  0  0  0  0  0  0  0  0  0  0
  122.2885  122.8930   85.6104 N   0  0  0  0  0  0  0  0  0  0  0  0
  120.8479  122.5794   85.5188 C   0  0  0  0  0  0  0  0  0  0  0  0
  120.5804  121.5201   84.4554 C   0  0  0  0  0  0  0  0  0  0  0  0
  119.4291  121.9049   83.5768 C   0  0  0  0  0  0  0  0  0  0  0  0
  118.2900  122.1513   83.9393 O   0  0  0  0  0  0  0  0  0  0  0  0
  119.7778  122.0294   82.2819 O   0  0  0  0  0  0  0  0  0  0  0  0
  123.1053  122.3290   86.5853 C   0  0  0  0  0  0  0  0  0  0  0  0
  122.6039  121.9014   87.8277 C   0  0  0  0  0  0  0  0  0  0  0  0
  123.4169  121.3309   88.8165 C   0  0  0  0  0  0  0  0  0  0  0  0
  124.7770  121.1731   88.5932 C   0  0  0  0  0  0  0  0  0  0  0  0
  125.3191  121.5879   87.3789 C   0  0  0  0  0  0  0  0  0  0  0  0
  126.7754  121.4089   87.1679 C   0  0  0  0  0  0  0  0  0  0  0  0
  127.6585  121.8223   87.8967 O   0  0  0  0  0  0  0  0  0  0  0  0
  127.0675  120.7333   86.0416 O   0  0  0  0  0  0  0  0  0  0  0  0
  124.4871  122.1492   86.3927 C   0  0  0  0  0  0  0  0  0  0  0  0
  123.4629  126.3172   83.1133 H   0  0  0  0  0  0  0  0  0  0  0  0
  120.8174  124.6509   84.7610 H   0  0  0  0  0  0  0  0  0  0  0  0
  121.6552  124.9100   83.1653 H   0  0  0  0  0  0  0  0  0  0  0  0
  123.0914  123.3117   83.7065 H   0  0  0  0  0  0  0  0  0  0  0  0
  123.6743  124.3696   85.0576 H   0  0  0  0  0  0  0  0  0  0  0  0
  120.4995  122.2057   86.4930 H   0  0  0  0  0  0  0  0  0  0  0  0
  120.3089  123.4968   85.2398 H   0  0  0  0  0  0  0  0  0  0  0  0
  121.4804  121.4015   83.8343 H   0  0  0  0  0  0  0  0  0  0  0  0
  120.3285  120.5769   84.9623 H   0  0  0  0  0  0  0  0  0  0  0  0
  119.0974  122.2807   81.6081 H   0  0  0  0  0  0  0  0  0  0  0  0
  121.5295  122.0197   88.0318 H   0  0  0  0  0  0  0  0  0  0  0  0
  122.9760  121.0078   89.7711 H   0  0  0  0  0  0  0  0  0  0  0  0
  125.4196  120.7258   89.3658 H   0  0  0  0  0  0  0  0  0  0  0  0
  128.0114  120.5562   85.8012 H   0  0  0  0  0  0  0  0  0  0  0  0
  124.9335  122.4586   85.4361 H   0  0  0  0  0  0  0  0  0  0  0  0
  1  2  2  0
  2  3  1  0
  2  4  1  0
  4  5  1  0
  5  6  1  0
  6  7  1  0
  7  8  1  0
  8  9  1  0
  9 10  2  0
  9 11  1  0
  6 12  1  0
 12 13  2  0
 13 14  1  0
 14 15  2  0
 15 16  1  0
 16 17  1  0
 17 18  2  0
 17 19  1  0
 16 20  2  0
 20 12  1  0
  3 21  1  0
  4 22  1  0
  4 23  1  0
  5 24  1  0
  5 25  1  0
  7 26  1  0
  7 27  1  0
  8 28  1  0
  8 29  1  0
 11 30  1  0
 13 31  1  0
 14 32  1  0
 15 33  1  0
 19 34  1  0
 20 35  1  0
M  END
>  <loss>  (14) 
0.5931012630462646

>  <score>  (14) 
3.129366874694824

$$$$
UIAFDRRSIISFKN-UHFFFAOYSA-N
     RDKit          3D

 35 35  0  0  0  0  0  0  0  0999 V2000
  119.7734  125.1059   84.2562 O   0  0  0  0  0  0  0  0  0  0  0  0
  120.5826  124.2417   83.9608 C   0  0  0  0  0  0  0  0  0  0  0  0
  120.3354  123.3995   82.9404 O   0  0  0  0  0  0  0  0  0  0  0  0
  121.9282  124.0453   84.5884 C   0  0  0  0  0  0  0  0  0  0  0  0
  122.2265  122.5643   84.7928 C   0  0  0  0  0  0  0  0  0  0  0  0
  122.1284  122.1859   86.2174 N   0  0  0  0  0  0  0  0  0  0  0  0
  120.7670  121.9423   86.7384 C   0  0  0  0  0  0  0  0  0  0  0  0
  120.7634  121.6533   88.2371 C   0  0  0  0  0  0  0  0  0  0  0  0
  119.6271  120.7570   88.6351 C   0  0  0  0  0  0  0  0  0  0  0  0
  119.2969  119.7018   88.1213 O   0  0  0  0  0  0  0  0  0  0  0  0
  118.9649  121.2264   89.7114 O   0  0  0  0  0  0  0  0  0  0  0  0
  123.2572  121.9831   87.0070 C   0  0  0  0  0  0  0  0  0  0  0  0
  123.1825  121.8589   88.4063 C   0  0  0  0  0  0  0  0  0  0  0  0
  124.3136  121.6510   89.2078 C   0  0  0  0  0  0  0  0  0  0  0  0
  125.5721  121.5586   88.6283 C   0  0  0  0  0  0  0  0  0  0  0  0
  125.6929  121.6753   87.2452 C   0  0  0  0  0  0  0  0  0  0  0  0
  127.0053  121.5832   86.5610 C   0  0  0  0  0  0  0  0  0  0  0  0
  127.8443  122.4633   86.5038 O   0  0  0  0  0  0  0  0  0  0  0  0
  127.2088  120.3888   85.9768 O   0  0  0  0  0  0  0  0  0  0  0  0
  124.5474  121.8843   86.4556 C   0  0  0  0  0  0  0  0  0  0  0  0
  120.9953  122.7001   82.7049 H   0  0  0  0  0  0  0  0  0  0  0  0
  122.6974  124.4798   83.9330 H   0  0  0  0  0  0  0  0  0  0  0  0
  121.9321  124.5417   85.5701 H   0  0  0  0  0  0  0  0  0  0  0  0
  121.5034  121.9705   84.2143 H   0  0  0  0  0  0  0  0  0  0  0  0
  123.2540  122.3681   84.4526 H   0  0  0  0  0  0  0  0  0  0  0  0
  120.1508  122.8336   86.5486 H   0  0  0  0  0  0  0  0  0  0  0  0
  120.3631  121.0578   86.2242 H   0  0  0  0  0  0  0  0  0  0  0  0
  121.7117  121.1654   88.5068 H   0  0  0  0  0  0  0  0  0  0  0  0
  120.6428  122.6098   88.7669 H   0  0  0  0  0  0  0  0  0  0  0  0
  118.1921  120.7253   90.0744 H   0  0  0  0  0  0  0  0  0  0  0  0
  122.1973  121.9277   88.8908 H   0  0  0  0  0  0  0  0  0  0  0  0
  124.2039  121.5607   90.2986 H   0  0  0  0  0  0  0  0  0  0  0  0
  126.4625  121.3954   89.2534 H   0  0  0  0  0  0  0  0  0  0  0  0
  128.0527  120.2134   85.4898 H   0  0  0  0  0  0  0  0  0  0  0  0
  124.6652  121.9739   85.3656 H   0  0  0  0  0  0  0  0  0  0  0  0
  1  2  2  0
  2  3  1  0
  2  4  1  0
  4  5  1  0
  5  6  1  0
  6  7  1  0
  7  8  1  0
  8  9  1  0
  9 10  2  0
  9 11  1  0
  6 12  1  0
 12 13  2  0
 13 14  1  0
 14 15  2  0
 15 16  1  0
 16 17  1  0
 17 18  2  0
 17 19  1  0
 16 20  2  0
 20 12  1  0
  3 21  1  0
  4 22  1  0
  4 23  1  0
  5 24  1  0
  5 25  1  0
  7 26  1  0
  7 27  1  0
  8 28  1  0
  8 29  1  0
 11 30  1  0
 13 31  1  0
 14 32  1  0
 15 33  1  0
 19 34  1  0
 20 35  1  0
M  END
>  <loss>  (15) 
0.5867856740951538

>  <score>  (15) 
2.849503993988037

$$$$
UIAFDRRSIISFKN-UHFFFAOYSA-N
     RDKit          3D

 35 35  0  0  0  0  0  0  0  0999 V2000
  120.4660  122.6608   82.9514 O   0  0  0  0  0  0  0  0  0  0  0  0
  121.0203  123.6053   83.4864 C   0  0  0  0  0  0  0  0  0  0  0  0
  120.5371  124.8549   83.3402 O   0  0  0  0  0  0  0  0  0  0  0  0
  122.2381  123.5718   84.3598 C   0  0  0  0  0  0  0  0  0  0  0  0
  122.2990  122.2571   85.1296 C   0  0  0  0  0  0  0  0  0  0  0  0
  122.2400  122.5167   86.5900 N   0  0  0  0  0  0  0  0  0  0  0  0
  120.9566  122.1855   87.2490 C   0  0  0  0  0  0  0  0  0  0  0  0
  120.2191  123.4562   87.6593 C   0  0  0  0  0  0  0  0  0  0  0  0
  120.0272  123.4874   89.1459 C   0  0  0  0  0  0  0  0  0  0  0  0
  119.8446  122.5397   89.8899 O   0  0  0  0  0  0  0  0  0  0  0  0
  120.0531  124.7445   89.6317 O   0  0  0  0  0  0  0  0  0  0  0  0
  123.3971  122.0423   87.2454 C   0  0  0  0  0  0  0  0  0  0  0  0
  123.2735  121.5318   88.5473 C   0  0  0  0  0  0  0  0  0  0  0  0
  124.3827  121.0618   89.2539 C   0  0  0  0  0  0  0  0  0  0  0  0
  125.6445  121.0987   88.6670 C   0  0  0  0  0  0  0  0  0  0  0  0
  125.7955  121.6065   87.3727 C   0  0  0  0  0  0  0  0  0  0  0  0
  127.1573  121.6332   86.7872 C   0  0  0  0  0  0  0  0  0  0  0  0
  128.0037  122.4843   86.9898 O   0  0  0  0  0  0  0  0  0  0  0  0
  127.3996  120.5914   85.9722 O   0  0  0  0  0  0  0  0  0  0  0  0
  124.6755  122.0761   86.6695 C   0  0  0  0  0  0  0  0  0  0  0  0
  120.9934  125.6165   83.7782 H   0  0  0  0  0  0  0  0  0  0  0  0
  123.1371  123.6679   83.7333 H   0  0  0  0  0  0  0  0  0  0  0  0
  122.1884  124.4049   85.0764 H   0  0  0  0  0  0  0  0  0  0  0  0
  121.4473  121.6250   84.8379 H   0  0  0  0  0  0  0  0  0  0  0  0
  123.2437  121.7454   84.8932 H   0  0  0  0  0  0  0  0  0  0  0  0
  120.3289  121.6130   86.5503 H   0  0  0  0  0  0  0  0  0  0  0  0
  121.1644  121.5898   88.1501 H   0  0  0  0  0  0  0  0  0  0  0  0
  120.8070  124.3332   87.3505 H   0  0  0  0  0  0  0  0  0  0  0  0
  119.2340  123.4729   87.1702 H   0  0  0  0  0  0  0  0  0  0  0  0
  119.9376  124.9025   90.6021 H   0  0  0  0  0  0  0  0  0  0  0  0
  122.2814  121.5014   89.0213 H   0  0  0  0  0  0  0  0  0  0  0  0
  124.2597  120.6633   90.2718 H   0  0  0  0  0  0  0  0  0  0  0  0
  126.5207  120.7293   89.2199 H   0  0  0  0  0  0  0  0  0  0  0  0
  128.2788  120.5068   85.5250 H   0  0  0  0  0  0  0  0  0  0  0  0
  124.8020  122.4763   85.6526 H   0  0  0  0  0  0  0  0  0  0  0  0
  1  2  2  0
  2  3  1  0
  2  4  1  0
  4  5  1  0
  5  6  1  0
  6  7  1  0
  7  8  1  0
  8  9  1  0
  9 10  2  0
  9 11  1  0
  6 12  1  0
 12 13  2  0
 13 14  1  0
 14 15  2  0
 15 16  1  0
 16 17  1  0
 17 18  2  0
 17 19  1  0
 16 20  2  0
 20 12  1  0
  3 21  1  0
  4 22  1  0
  4 23  1  0
  5 24  1  0
  5 25  1  0
  7 26  1  0
  7 27  1  0
  8 28  1  0
  8 29  1  0
 11 30  1  0
 13 31  1  0
 14 32  1  0
 15 33  1  0
 19 34  1  0
 20 35  1  0
M  END
>  <loss>  (16) 
0.596031665802002

>  <score>  (16) 
2.559000015258789

$$$$
UIAFDRRSIISFKN-UHFFFAOYSA-N
     RDKit          3D

 35 35  0  0  0  0  0  0  0  0999 V2000
  120.9604  124.1063   83.0220 O   0  0  0  0  0  0  0  0  0  0  0  0
  120.6514  122.9879   83.3963 C   0  0  0  0  0  0  0  0  0  0  0  0
  119.3781  122.5585   83.2845 O   0  0  0  0  0  0  0  0  0  0  0  0
  121.5382  121.9539   84.0219 C   0  0  0  0  0  0  0  0  0  0  0  0
  122.6408  122.6209   84.8392 C   0  0  0  0  0  0  0  0  0  0  0  0
  122.2454  122.6520   86.2677 N   0  0  0  0  0  0  0  0  0  0  0  0
  121.7231  123.9597   86.7311 C   0  0  0  0  0  0  0  0  0  0  0  0
  120.6935  123.7743   87.8414 C   0  0  0  0  0  0  0  0  0  0  0  0
  120.2054  125.1079   88.3206 C   0  0  0  0  0  0  0  0  0  0  0  0
  120.5189  126.2066   87.8948 O   0  0  0  0  0  0  0  0  0  0  0  0
  119.3231  124.9901   89.3320 O   0  0  0  0  0  0  0  0  0  0  0  0
  123.2565  122.1065   87.0855 C   0  0  0  0  0  0  0  0  0  0  0  0
  122.8797  121.5575   88.3191 C   0  0  0  0  0  0  0  0  0  0  0  0
  123.8251  120.9893   89.1740 C   0  0  0  0  0  0  0  0  0  0  0  0
  125.1678  120.9564   88.8006 C   0  0  0  0  0  0  0  0  0  0  0  0
  125.5608  121.4877   87.5677 C   0  0  0  0  0  0  0  0  0  0  0  0
  126.9752  121.4747   87.1238 C   0  0  0  0  0  0  0  0  0  0  0  0
  127.3742  121.1605   86.0188 O   0  0  0  0  0  0  0  0  0  0  0  0
  127.8308  121.8587   88.0877 O   0  0  0  0  0  0  0  0  0  0  0  0
  124.6053  122.0574   86.7139 C   0  0  0  0  0  0  0  0  0  0  0  0
  119.1338  121.6492   83.5904 H   0  0  0  0  0  0  0  0  0  0  0  0
  120.9362  121.3118   84.6818 H   0  0  0  0  0  0  0  0  0  0  0  0
  121.9997  121.3516   83.2256 H   0  0  0  0  0  0  0  0  0  0  0  0
  123.5750  122.0505   84.7295 H   0  0  0  0  0  0  0  0  0  0  0  0
  122.7949  123.6485   84.4784 H   0  0  0  0  0  0  0  0  0  0  0  0
  122.5581  124.5659   87.1123 H   0  0  0  0  0  0  0  0  0  0  0  0
  121.2370  124.4636   85.8828 H   0  0  0  0  0  0  0  0  0  0  0  0
  119.8431  123.1931   87.4553 H   0  0  0  0  0  0  0  0  0  0  0  0
  121.1623  123.2401   88.6809 H   0  0  0  0  0  0  0  0  0  0  0  0
  118.9252  125.8002   89.7387 H   0  0  0  0  0  0  0  0  0  0  0  0
  121.8212  121.5749   88.6182 H   0  0  0  0  0  0  0  0  0  0  0  0
  123.5114  120.5682   90.1406 H   0  0  0  0  0  0  0  0  0  0  0  0
  125.9165  120.5137   89.4740 H   0  0  0  0  0  0  0  0  0  0  0  0
  128.8031  121.8883   87.9035 H   0  0  0  0  0  0  0  0  0  0  0  0
  124.9185  122.4696   85.7433 H   0  0  0  0  0  0  0  0  0  0  0  0
  1  2  2  0
  2  3  1  0
  2  4  1  0
  4  5  1  0
  5  6  1  0
  6  7  1  0
  7  8  1  0
  8  9  1  0
  9 10  2  0
  9 11  1  0
  6 12  1  0
 12 13  2  0
 13 14  1  0
 14 15  2  0
 15 16  1  0
 16 17  1  0
 17 18  2  0
 17 19  1  0
 16 20  2  0
 20 12  1  0
  3 21  1  0
  4 22  1  0
  4 23  1  0
  5 24  1  0
  5 25  1  0
  7 26  1  0
  7 27  1  0
  8 28  1  0
  8 29  1  0
 11 30  1  0
 13 31  1  0
 14 32  1  0
 15 33  1  0
 19 34  1  0
 20 35  1  0
M  END
>  <loss>  (17) 
0.6120842099189758

>  <score>  (17) 
-1.0329082012176514

$$$$
UIAFDRRSIISFKN-UHFFFAOYSA-N
     RDKit          3D

 35 35  0  0  0  0  0  0  0  0999 V2000
  119.9994  118.2877   88.8686 O   0  0  0  0  0  0  0  0  0  0  0  0
  120.0695  118.9198   89.9086 C   0  0  0  0  0  0  0  0  0  0  0  0
  118.9503  119.3616   90.5187 O   0  0  0  0  0  0  0  0  0  0  0  0
  121.3089  119.3205   90.6515 C   0  0  0  0  0  0  0  0  0  0  0  0
  122.4457  119.5969   89.6741 C   0  0  0  0  0  0  0  0  0  0  0  0
  122.5756  121.0424   89.4006 N   0  0  0  0  0  0  0  0  0  0  0  0
  121.6391  121.9272   90.1188 C   0  0  0  0  0  0  0  0  0  0  0  0
  122.2199  122.4088   91.4425 C   0  0  0  0  0  0  0  0  0  0  0  0
  121.4378  123.5980   91.9070 C   0  0  0  0  0  0  0  0  0  0  0  0
  120.3309  123.9288   91.5129 O   0  0  0  0  0  0  0  0  0  0  0  0
  122.0873  124.3322   92.8306 O   0  0  0  0  0  0  0  0  0  0  0  0
  123.4872  121.5283   88.4667 C   0  0  0  0  0  0  0  0  0  0  0  0
  123.1279  122.4801   87.4931 C   0  0  0  0  0  0  0  0  0  0  0  0
  124.0375  122.9771   86.5495 C   0  0  0  0  0  0  0  0  0  0  0  0
  125.3528  122.5338   86.5510 C   0  0  0  0  0  0  0  0  0  0  0  0
  125.7546  121.5926   87.4979 C   0  0  0  0  0  0  0  0  0  0  0  0
  127.1680  121.1429   87.4798 C   0  0  0  0  0  0  0  0  0  0  0  0
  127.6819  120.4407   86.6277 O   0  0  0  0  0  0  0  0  0  0  0  0
  127.8791  121.5935   88.5293 O   0  0  0  0  0  0  0  0  0  0  0  0
  124.8286  121.1021   88.4372 C   0  0  0  0  0  0  0  0  0  0  0  0
  119.0162  119.8742   91.3630 H   0  0  0  0  0  0  0  0  0  0  0  0
  121.1038  120.2295   91.2360 H   0  0  0  0  0  0  0  0  0  0  0  0
  121.6050  118.5002   91.3220 H   0  0  0  0  0  0  0  0  0  0  0  0
  123.3877  119.2273   90.1055 H   0  0  0  0  0  0  0  0  0  0  0  0
  122.2241  119.0820   88.7276 H   0  0  0  0  0  0  0  0  0  0  0  0
  121.4191  122.8007   89.4874 H   0  0  0  0  0  0  0  0  0  0  0  0
  120.7244  121.3553   90.3340 H   0  0  0  0  0  0  0  0  0  0  0  0
  122.1511  121.6055   92.1908 H   0  0  0  0  0  0  0  0  0  0  0  0
  123.2765  122.6846   91.3094 H   0  0  0  0  0  0  0  0  0  0  0  0
  121.6616  125.1426   93.2076 H   0  0  0  0  0  0  0  0  0  0  0  0
  122.0916  122.8485   87.4723 H   0  0  0  0  0  0  0  0  0  0  0  0
  123.7085  123.7192   85.8071 H   0  0  0  0  0  0  0  0  0  0  0  0
  126.0707  122.9209   85.8128 H   0  0  0  0  0  0  0  0  0  0  0  0
  128.8356  121.3541   88.6186 H   0  0  0  0  0  0  0  0  0  0  0  0
  125.1650  120.3587   89.1750 H   0  0  0  0  0  0  0  0  0  0  0  0
  1  2  2  0
  2  3  1  0
  2  4  1  0
  4  5  1  0
  5  6  1  0
  6  7  1  0
  7  8  1  0
  8  9  1  0
  9 10  2  0
  9 11  1  0
  6 12  1  0
 12 13  2  0
 13 14  1  0
 14 15  2  0
 15 16  1  0
 16 17  1  0
 17 18  2  0
 17 19  1  0
 16 20  2  0
 20 12  1  0
  3 21  1  0
  4 22  1  0
  4 23  1  0
  5 24  1  0
  5 25  1  0
  7 26  1  0
  7 27  1  0
  8 28  1  0
  8 29  1  0
 11 30  1  0
 13 31  1  0
 14 32  1  0
 15 33  1  0
 19 34  1  0
 20 35  1  0
M  END
>  <loss>  (18) 
0.8519052267074585

>  <score>  (18) 
-2.1533942222595215

$$$$
UIAFDRRSIISFKN-UHFFFAOYSA-N
     RDKit          3D

 35 35  0  0  0  0  0  0  0  0999 V2000
  118.5927  119.9785   86.2378 O   0  0  0  0  0  0  0  0  0  0  0  0
  119.0107  120.8477   86.9832 C   0  0  0  0  0  0  0  0  0  0  0  0
  118.1800  121.4681   87.8462 O   0  0  0  0  0  0  0  0  0  0  0  0
  120.4111  121.3765   87.0740 C   0  0  0  0  0  0  0  0  0  0  0  0
  121.0340  121.4658   85.6855 C   0  0  0  0  0  0  0  0  0  0  0  0
  122.2745  122.2670   85.7070 N   0  0  0  0  0  0  0  0  0  0  0  0
  122.4516  123.2221   84.5970 C   0  0  0  0  0  0  0  0  0  0  0  0
  121.7168  124.5315   84.8561 C   0  0  0  0  0  0  0  0  0  0  0  0
  121.0169  124.9474   83.5996 C   0  0  0  0  0  0  0  0  0  0  0  0
  120.3703  124.2201   82.8626 O   0  0  0  0  0  0  0  0  0  0  0  0
  121.1763  126.2533   83.3111 O   0  0  0  0  0  0  0  0  0  0  0  0
  123.2472  122.0779   86.6856 C   0  0  0  0  0  0  0  0  0  0  0  0
  122.9432  122.1057   88.0602 C   0  0  0  0  0  0  0  0  0  0  0  0
  123.9138  121.9152   89.0534 C   0  0  0  0  0  0  0  0  0  0  0  0
  125.2360  121.6857   88.6986 C   0  0  0  0  0  0  0  0  0  0  0  0
  125.5836  121.6479   87.3489 C   0  0  0  0  0  0  0  0  0  0  0  0
  127.0026  121.3937   86.9999 C   0  0  0  0  0  0  0  0  0  0  0  0
  127.4011  120.5947   86.1716 O   0  0  0  0  0  0  0  0  0  0  0  0
  127.8634  122.1526   87.7024 O   0  0  0  0  0  0  0  0  0  0  0  0
  124.5975  121.8432   86.3641 C   0  0  0  0  0  0  0  0  0  0  0  0
  118.5278  122.1730   88.4482 H   0  0  0  0  0  0  0  0  0  0  0  0
  120.3920  122.3781   87.5283 H   0  0  0  0  0  0  0  0  0  0  0  0
  121.0120  120.6936   87.6925 H   0  0  0  0  0  0  0  0  0  0  0  0
  121.2685  120.4510   85.3315 H   0  0  0  0  0  0  0  0  0  0  0  0
  120.3150  121.9552   85.0120 H   0  0  0  0  0  0  0  0  0  0  0  0
  123.5244  123.4334   84.4766 H   0  0  0  0  0  0  0  0  0  0  0  0
  122.0337  122.7694   83.6857 H   0  0  0  0  0  0  0  0  0  0  0  0
  120.9798  124.3893   85.6602 H   0  0  0  0  0  0  0  0  0  0  0  0
  122.4331  125.3088   85.1603 H   0  0  0  0  0  0  0  0  0  0  0  0
  120.7554  126.6362   82.5009 H   0  0  0  0  0  0  0  0  0  0  0  0
  121.9020  122.2842   88.3670 H   0  0  0  0  0  0  0  0  0  0  0  0
  123.6274  121.9475   90.1150 H   0  0  0  0  0  0  0  0  0  0  0  0
  126.0014  121.5351   89.4741 H   0  0  0  0  0  0  0  0  0  0  0  0
  128.8378  122.0656   87.5504 H   0  0  0  0  0  0  0  0  0  0  0  0
  124.8925  121.8113   85.3048 H   0  0  0  0  0  0  0  0  0  0  0  0
  1  2  2  0
  2  3  1  0
  2  4  1  0
  4  5  1  0
  5  6  1  0
  6  7  1  0
  7  8  1  0
  8  9  1  0
  9 10  2  0
  9 11  1  0
  6 12  1  0
 12 13  2  0
 13 14  1  0
 14 15  2  0
 15 16  1  0
 16 17  1  0
 17 18  2  0
 17 19  1  0
 16 20  2  0
 20 12  1  0
  3 21  1  0
  4 22  1  0
  4 23  1  0
  5 24  1  0
  5 25  1  0
  7 26  1  0
  7 27  1  0
  8 28  1  0
  8 29  1  0
 11 30  1  0
 13 31  1  0
 14 32  1  0
 15 33  1  0
 19 34  1  0
 20 35  1  0
M  END
>  <loss>  (19) 
0.6466207504272461

>  <score>  (19) 
-3.7326369285583496

$$$$
UIAFDRRSIISFKN-UHFFFAOYSA-N
     RDKit          3D

 35 35  0  0  0  0  0  0  0  0999 V2000
  119.4982  121.7727   89.5343 O   0  0  0  0  0  0  0  0  0  0  0  0
  119.4877  121.1165   88.5073 C   0  0  0  0  0  0  0  0  0  0  0  0
  118.3790  120.4471   88.1340 O   0  0  0  0  0  0  0  0  0  0  0  0
  120.6043  120.9495   87.5212 C   0  0  0  0  0  0  0  0  0  0  0  0
  120.9364  122.2872   86.8691 C   0  0  0  0  0  0  0  0  0  0  0  0
  122.1928  122.1762   86.0862 N   0  0  0  0  0  0  0  0  0  0  0  0
  122.3881  123.2027   85.0379 C   0  0  0  0  0  0  0  0  0  0  0  0
  121.6268  122.8282   83.7701 C   0  0  0  0  0  0  0  0  0  0  0  0
  120.5725  123.8529   83.4764 C   0  0  0  0  0  0  0  0  0  0  0  0
  120.6046  125.0440   83.7323 O   0  0  0  0  0  0  0  0  0  0  0  0
  119.4929  123.3093   82.8800 O   0  0  0  0  0  0  0  0  0  0  0  0
  123.3051  121.9489   86.9255 C   0  0  0  0  0  0  0  0  0  0  0  0
  123.1058  121.9120   88.3147 C   0  0  0  0  0  0  0  0  0  0  0  0
  124.1679  121.7064   89.1979 C   0  0  0  0  0  0  0  0  0  0  0  0
  125.4578  121.5370   88.7027 C   0  0  0  0  0  0  0  0  0  0  0  0
  125.6842  121.5738   87.3231 C   0  0  0  0  0  0  0  0  0  0  0  0
  127.0737  121.3949   86.8381 C   0  0  0  0  0  0  0  0  0  0  0  0
  127.5021  120.4217   86.2455 O   0  0  0  0  0  0  0  0  0  0  0  0
  127.8671  122.4443   87.1170 O   0  0  0  0  0  0  0  0  0  0  0  0
  124.6112  121.7803   86.4425 C   0  0  0  0  0  0  0  0  0  0  0  0
  118.3791  119.9165   87.2983 H   0  0  0  0  0  0  0  0  0  0  0  0
  121.4950  120.5683   88.0421 H   0  0  0  0  0  0  0  0  0  0  0  0
  120.2914  120.2388   86.7421 H   0  0  0  0  0  0  0  0  0  0  0  0
  120.1147  122.5789   86.1986 H   0  0  0  0  0  0  0  0  0  0  0  0
  121.0675  123.0470   87.6537 H   0  0  0  0  0  0  0  0  0  0  0  0
  122.0201  124.1712   85.4075 H   0  0  0  0  0  0  0  0  0  0  0  0
  123.4603  123.2678   84.8012 H   0  0  0  0  0  0  0  0  0  0  0  0
  122.3300  122.7783   82.9256 H   0  0  0  0  0  0  0  0  0  0  0  0
  121.1453  121.8501   83.9167 H   0  0  0  0  0  0  0  0  0  0  0  0
  118.7234  123.8812   82.6330 H   0  0  0  0  0  0  0  0  0  0  0  0
  122.0908  122.0481   88.7162 H   0  0  0  0  0  0  0  0  0  0  0  0
  123.9856  121.6783   90.2823 H   0  0  0  0  0  0  0  0  0  0  0  0
  126.2971  121.3746   89.3949 H   0  0  0  0  0  0  0  0  0  0  0  0
  128.8173  122.4340   86.8395 H   0  0  0  0  0  0  0  0  0  0  0  0
  124.7968  121.8103   85.3587 H   0  0  0  0  0  0  0  0  0  0  0  0
  1  2  2  0
  2  3  1  0
  2  4  1  0
  4  5  1  0
  5  6  1  0
  6  7  1  0
  7  8  1  0
  8  9  1  0
  9 10  2  0
  9 11  1  0
  6 12  1  0
 12 13  2  0
 13 14  1  0
 14 15  2  0
 15 16  1  0
 16 17  1  0
 17 18  2  0
 17 19  1  0
 16 20  2  0
 20 12  1  0
  3 21  1  0
  4 22  1  0
  4 23  1  0
  5 24  1  0
  5 25  1  0
  7 26  1  0
  7 27  1  0
  8 28  1  0
  8 29  1  0
 11 30  1  0
 13 31  1  0
 14 32  1  0
 15 33  1  0
 19 34  1  0
 20 35  1  0
M  END
>  <loss>  (20) 
0.6246944665908813

>  <score>  (20) 
-4.431225776672363

$$$$
UIAFDRRSIISFKN-UHFFFAOYSA-N
     RDKit          3D

 35 35  0  0  0  0  0  0  0  0999 V2000
  118.3743  120.6859   90.5954 O   0  0  0  0  0  0  0  0  0  0  0  0
  119.2759  120.0490   90.0760 C   0  0  0  0  0  0  0  0  0  0  0  0
  119.0581  119.3711   88.9318 O   0  0  0  0  0  0  0  0  0  0  0  0
  120.6521  119.8418   90.6314 C   0  0  0  0  0  0  0  0  0  0  0  0
  121.7374  119.9345   89.5652 C   0  0  0  0  0  0  0  0  0  0  0  0
  122.1680  121.3302   89.3477 N   0  0  0  0  0  0  0  0  0  0  0  0
  121.5558  122.3426   90.2322 C   0  0  0  0  0  0  0  0  0  0  0  0
  122.3454  122.4932   91.5277 C   0  0  0  0  0  0  0  0  0  0  0  0
  122.0798  123.8159   92.1799 C   0  0  0  0  0  0  0  0  0  0  0  0
  121.1925  124.6027   91.8910 O   0  0  0  0  0  0  0  0  0  0  0  0
  122.9037  124.0632   93.2162 O   0  0  0  0  0  0  0  0  0  0  0  0
  123.0815  121.6733   88.3559 C   0  0  0  0  0  0  0  0  0  0  0  0
  122.7110  122.4144   87.2196 C   0  0  0  0  0  0  0  0  0  0  0  0
  123.6225  122.7667   86.2151 C   0  0  0  0  0  0  0  0  0  0  0  0
  124.9508  122.3787   86.3137 C   0  0  0  0  0  0  0  0  0  0  0  0
  125.3622  121.6379   87.4194 C   0  0  0  0  0  0  0  0  0  0  0  0
  126.7867  121.2353   87.4983 C   0  0  0  0  0  0  0  0  0  0  0  0
  127.6502  121.5025   86.6829 O   0  0  0  0  0  0  0  0  0  0  0  0
  127.0684  120.4983   88.5882 O   0  0  0  0  0  0  0  0  0  0  0  0
  124.4365  121.3015   88.4242 C   0  0  0  0  0  0  0  0  0  0  0  0
  119.7930  118.8558   88.5142 H   0  0  0  0  0  0  0  0  0  0  0  0
  120.8427  120.6102   91.3951 H   0  0  0  0  0  0  0  0  0  0  0  0
  120.6895  118.8277   91.0559 H   0  0  0  0  0  0  0  0  0  0  0  0
  122.6049  119.3392   89.8862 H   0  0  0  0  0  0  0  0  0  0  0  0
  121.3253  119.5505   88.6204 H   0  0  0  0  0  0  0  0  0  0  0  0
  121.5357  123.3103   89.7097 H   0  0  0  0  0  0  0  0  0  0  0  0
  120.5358  122.0153   90.4822 H   0  0  0  0  0  0  0  0  0  0  0  0
  122.0550  121.6886   92.2193 H   0  0  0  0  0  0  0  0  0  0  0  0
  123.4174  122.4346   91.2882 H   0  0  0  0  0  0  0  0  0  0  0  0
  122.8204  124.9091   93.7239 H   0  0  0  0  0  0  0  0  0  0  0  0
  121.6626  122.7304   87.1148 H   0  0  0  0  0  0  0  0  0  0  0  0
  123.2843  123.3518   85.3471 H   0  0  0  0  0  0  0  0  0  0  0  0
  125.6705  122.6527   85.5283 H   0  0  0  0  0  0  0  0  0  0  0  0
  127.9912  120.1747   88.7419 H   0  0  0  0  0  0  0  0  0  0  0  0
  124.7850  120.7267   89.2949 H   0  0  0  0  0  0  0  0  0  0  0  0
  1  2  2  0
  2  3  1  0
  2  4  1  0
  4  5  1  0
  5  6  1  0
  6  7  1  0
  7  8  1  0
  8  9  1  0
  9 10  2  0
  9 11  1  0
  6 12  1  0
 12 13  2  0
 13 14  1  0
 14 15  2  0
 15 16  1  0
 16 17  1  0
 17 18  2  0
 17 19  1  0
 16 20  2  0
 20 12  1  0
  3 21  1  0
  4 22  1  0
  4 23  1  0
  5 24  1  0
  5 25  1  0
  7 26  1  0
  7 27  1  0
  8 28  1  0
  8 29  1  0
 11 30  1  0
 13 31  1  0
 14 32  1  0
 15 33  1  0
 19 34  1  0
 20 35  1  0
M  END
>  <loss>  (21) 
0.8305449485778809

>  <score>  (21) 
-9.73328971862793

$$$$
UIAFDRRSIISFKN-UHFFFAOYSA-N
     RDKit          3D

 35 35  0  0  0  0  0  0  0  0999 V2000
  120.1843  117.6132   88.0484 O   0  0  0  0  0  0  0  0  0  0  0  0
  119.9668  118.6957   88.5650 C   0  0  0  0  0  0  0  0  0  0  0  0
  118.9838  119.4928   88.0979 O   0  0  0  0  0  0  0  0  0  0  0  0
  120.6973  119.3211   89.7157 C   0  0  0  0  0  0  0  0  0  0  0  0
  122.1346  119.6398   89.3197 C   0  0  0  0  0  0  0  0  0  0  0  0
  122.3246  121.0907   89.1205 N   0  0  0  0  0  0  0  0  0  0  0  0
  121.3477  121.9726   89.7865 C   0  0  0  0  0  0  0  0  0  0  0  0
  122.0139  122.8790   90.8141 C   0  0  0  0  0  0  0  0  0  0  0  0
  121.0886  123.0475   91.9790 C   0  0  0  0  0  0  0  0  0  0  0  0
  121.1172  122.4077   93.0181 O   0  0  0  0  0  0  0  0  0  0  0  0
  120.1542  123.9972   91.7810 O   0  0  0  0  0  0  0  0  0  0  0  0
  123.3305  121.5873   88.2952 C   0  0  0  0  0  0  0  0  0  0  0  0
  123.0710  122.5264   87.2786 C   0  0  0  0  0  0  0  0  0  0  0  0
  124.0757  123.0340   86.4433 C   0  0  0  0  0  0  0  0  0  0  0  0
  125.3894  122.6145   86.6018 C   0  0  0  0  0  0  0  0  0  0  0  0
  125.6940  121.6866   87.5969 C   0  0  0  0  0  0  0  0  0  0  0  0
  127.1074  121.2625   87.7473 C   0  0  0  0  0  0  0  0  0  0  0  0
  127.9885  121.4117   86.9198 O   0  0  0  0  0  0  0  0  0  0  0  0
  127.3583  120.6704   88.9292 O   0  0  0  0  0  0  0  0  0  0  0  0
  124.6733  121.1852   88.4258 C   0  0  0  0  0  0  0  0  0  0  0  0
  118.8140  120.3704   88.5234 H   0  0  0  0  0  0  0  0  0  0  0  0
  120.1866  120.2508   90.0074 H   0  0  0  0  0  0  0  0  0  0  0  0
  120.7066  118.6156   90.5595 H   0  0  0  0  0  0  0  0  0  0  0  0
  122.8108  119.2954   90.1160 H   0  0  0  0  0  0  0  0  0  0  0  0
  122.3569  119.1261   88.3728 H   0  0  0  0  0  0  0  0  0  0  0  0
  120.8554  122.5971   89.0264 H   0  0  0  0  0  0  0  0  0  0  0  0
  120.6168  121.3395   90.3110 H   0  0  0  0  0  0  0  0  0  0  0  0
  122.9563  122.4239   91.1531 H   0  0  0  0  0  0  0  0  0  0  0  0
  122.2312  123.8589   90.3639 H   0  0  0  0  0  0  0  0  0  0  0  0
  119.4892  124.1922   92.4879 H   0  0  0  0  0  0  0  0  0  0  0  0
  122.0380  122.8759   87.1341 H   0  0  0  0  0  0  0  0  0  0  0  0
  123.8230  123.7654   85.6616 H   0  0  0  0  0  0  0  0  0  0  0  0
  126.1817  123.0100   85.9492 H   0  0  0  0  0  0  0  0  0  0  0  0
  128.2706  120.3471   89.1371 H   0  0  0  0  0  0  0  0  0  0  0  0
  124.9341  120.4526   89.2038 H   0  0  0  0  0  0  0  0  0  0  0  0
  1  2  2  0
  2  3  1  0
  2  4  1  0
  4  5  1  0
  5  6  1  0
  6  7  1  0
  7  8  1  0
  8  9  1  0
  9 10  2  0
  9 11  1  0
  6 12  1  0
 12 13  2  0
 13 14  1  0
 14 15  2  0
 15 16  1  0
 16 17  1  0
 17 18  2  0
 17 19  1  0
 16 20  2  0
 20 12  1  0
  3 21  1  0
  4 22  1  0
  4 23  1  0
  5 24  1  0
  5 25  1  0
  7 26  1  0
  7 27  1  0
  8 28  1  0
  8 29  1  0
 11 30  1  0
 13 31  1  0
 14 32  1  0
 15 33  1  0
 19 34  1  0
 20 35  1  0
M  END
>  <loss>  (22) 
0.8085466623306274

>  <score>  (22) 
-10.568775177001953

$$$$
UIAFDRRSIISFKN-UHFFFAOYSA-N
     RDKit          3D

 35 35  0  0  0  0  0  0  0  0999 V2000
  119.1972  119.1809   90.7099 O   0  0  0  0  0  0  0  0  0  0  0  0
  119.1985  119.9276   89.7466 C   0  0  0  0  0  0  0  0  0  0  0  0
  118.2031  120.8189   89.5702 O   0  0  0  0  0  0  0  0  0  0  0  0
  120.2305  120.0150   88.6629 C   0  0  0  0  0  0  0  0  0  0  0  0
  121.6303  120.0264   89.2673 C   0  0  0  0  0  0  0  0  0  0  0  0
  122.1175  121.4222   89.4020 N   0  0  0  0  0  0  0  0  0  0  0  0
  122.4318  121.8617   90.7800 C   0  0  0  0  0  0  0  0  0  0  0  0
  121.4093  122.8848   91.2646 C   0  0  0  0  0  0  0  0  0  0  0  0
  122.0149  123.7653   92.3161 C   0  0  0  0  0  0  0  0  0  0  0  0
  122.7863  123.4396   93.2017 O   0  0  0  0  0  0  0  0  0  0  0  0
  121.5911  125.0406   92.2118 O   0  0  0  0  0  0  0  0  0  0  0  0
  123.0991  121.7218   88.4324 C   0  0  0  0  0  0  0  0  0  0  0  0
  122.7329  122.4917   87.3171 C   0  0  0  0  0  0  0  0  0  0  0  0
  123.6541  122.8087   86.3164 C   0  0  0  0  0  0  0  0  0  0  0  0
  124.9661  122.3537   86.4133 C   0  0  0  0  0  0  0  0  0  0  0  0
  125.3556  121.5812   87.5120 C   0  0  0  0  0  0  0  0  0  0  0  0
  126.7606  121.1120   87.5734 C   0  0  0  0  0  0  0  0  0  0  0  0
  127.4826  120.8969   86.6172 O   0  0  0  0  0  0  0  0  0  0  0  0
  127.2005  120.9325   88.8314 O   0  0  0  0  0  0  0  0  0  0  0  0
  124.4238  121.2678   88.5135 C   0  0  0  0  0  0  0  0  0  0  0  0
  118.2119  121.4217   88.7849 H   0  0  0  0  0  0  0  0  0  0  0  0
  120.1303  119.1468   87.9950 H   0  0  0  0  0  0  0  0  0  0  0  0
  120.0771  120.9451   88.0960 H   0  0  0  0  0  0  0  0  0  0  0  0
  121.6015  119.5539   90.2602 H   0  0  0  0  0  0  0  0  0  0  0  0
  122.3116  119.4699   88.6069 H   0  0  0  0  0  0  0  0  0  0  0  0
  122.4156  120.9894   91.4500 H   0  0  0  0  0  0  0  0  0  0  0  0
  123.4284  122.3272   90.7848 H   0  0  0  0  0  0  0  0  0  0  0  0
  121.0845  123.5040   90.4154 H   0  0  0  0  0  0  0  0  0  0  0  0
  120.5470  122.3541   91.6944 H   0  0  0  0  0  0  0  0  0  0  0  0
  121.9178  125.7244   92.8488 H   0  0  0  0  0  0  0  0  0  0  0  0
  121.6977  122.8532   87.2295 H   0  0  0  0  0  0  0  0  0  0  0  0
  123.3436  123.4165   85.4537 H   0  0  0  0  0  0  0  0  0  0  0  0
  125.6948  122.6013   85.6274 H   0  0  0  0  0  0  0  0  0  0  0  0
  128.1260  120.6202   88.9924 H   0  0  0  0  0  0  0  0  0  0  0  0
  124.7365  120.6579   89.3738 H   0  0  0  0  0  0  0  0  0  0  0  0
  1  2  2  0
  2  3  1  0
  2  4  1  0
  4  5  1  0
  5  6  1  0
  6  7  1  0
  7  8  1  0
  8  9  1  0
  9 10  2  0
  9 11  1  0
  6 12  1  0
 12 13  2  0
 13 14  1  0
 14 15  2  0
 15 16  1  0
 16 17  1  0
 17 18  2  0
 17 19  1  0
 16 20  2  0
 20 12  1  0
  3 21  1  0
  4 22  1  0
  4 23  1  0
  5 24  1  0
  5 25  1  0
  7 26  1  0
  7 27  1  0
  8 28  1  0
  8 29  1  0
 11 30  1  0
 13 31  1  0
 14 32  1  0
 15 33  1  0
 19 34  1  0
 20 35  1  0
M  END
>  <loss>  (23) 
0.8163626194000244

>  <score>  (23) 
-14.099006652832031

$$$$
UIAFDRRSIISFKN-UHFFFAOYSA-N
     RDKit          3D

 35 35  0  0  0  0  0  0  0  0999 V2000
  120.4378  118.1137   91.3462 O   0  0  0  0  0  0  0  0  0  0  0  0
  120.3700  118.5044   90.1937 C   0  0  0  0  0  0  0  0  0  0  0  0
  119.1763  118.7897   89.6369 O   0  0  0  0  0  0  0  0  0  0  0  0
  121.5054  118.7472   89.2456 C   0  0  0  0  0  0  0  0  0  0  0  0
  122.5844  119.5879   89.9192 C   0  0  0  0  0  0  0  0  0  0  0  0
  122.3755  121.0260   89.6159 N   0  0  0  0  0  0  0  0  0  0  0  0
  122.1866  121.9081   90.7894 C   0  0  0  0  0  0  0  0  0  0  0  0
  120.8643  122.6621   90.6882 C   0  0  0  0  0  0  0  0  0  0  0  0
  120.7824  123.7112   91.7560 C   0  0  0  0  0  0  0  0  0  0  0  0
  121.1669  123.6268   92.9094 O   0  0  0  0  0  0  0  0  0  0  0  0
  120.1848  124.8356   91.3139 O   0  0  0  0  0  0  0  0  0  0  0  0
  123.2979  121.4893   88.6526 C   0  0  0  0  0  0  0  0  0  0  0  0
  122.8440  122.3564   87.6462 C   0  0  0  0  0  0  0  0  0  0  0  0
  123.7038  122.8370   86.6561 C   0  0  0  0  0  0  0  0  0  0  0  0
  125.0416  122.4519   86.6539 C   0  0  0  0  0  0  0  0  0  0  0  0
  125.5182  121.5855   87.6428 C   0  0  0  0  0  0  0  0  0  0  0  0
  126.9480  121.1958   87.6003 C   0  0  0  0  0  0  0  0  0  0  0  0
  127.4813  120.5359   86.7273 O   0  0  0  0  0  0  0  0  0  0  0  0
  127.6482  121.6501   88.6546 O   0  0  0  0  0  0  0  0  0  0  0  0
  124.6475  121.1078   88.6344 C   0  0  0  0  0  0  0  0  0  0  0  0
  119.1301  119.1066   88.7001 H   0  0  0  0  0  0  0  0  0  0  0  0
  121.9353  117.7823   88.9391 H   0  0  0  0  0  0  0  0  0  0  0  0
  121.1278  119.2873   88.3648 H   0  0  0  0  0  0  0  0  0  0  0  0
  122.5378  119.4353   91.0076 H   0  0  0  0  0  0  0  0  0  0  0  0
  123.5697  119.2798   89.5394 H   0  0  0  0  0  0  0  0  0  0  0  0
  122.1851  121.2972   91.7042 H   0  0  0  0  0  0  0  0  0  0  0  0
  123.0090  122.6379   90.8201 H   0  0  0  0  0  0  0  0  0  0  0  0
  120.7947  123.1424   89.7010 H   0  0  0  0  0  0  0  0  0  0  0  0
  120.0352  121.9511   90.8196 H   0  0  0  0  0  0  0  0  0  0  0  0
  120.0683  125.6068   91.9236 H   0  0  0  0  0  0  0  0  0  0  0  0
  121.7879  122.6640   87.6372 H   0  0  0  0  0  0  0  0  0  0  0  0
  123.3249  123.5181   85.8800 H   0  0  0  0  0  0  0  0  0  0  0  0
  125.7222  122.8282   85.8760 H   0  0  0  0  0  0  0  0  0  0  0  0
  128.6147  121.4494   88.7306 H   0  0  0  0  0  0  0  0  0  0  0  0
  125.0287  120.4248   89.4079 H   0  0  0  0  0  0  0  0  0  0  0  0
  1  2  2  0
  2  3  1  0
  2  4  1  0
  4  5  1  0
  5  6  1  0
  6  7  1  0
  7  8  1  0
  8  9  1  0
  9 10  2  0
  9 11  1  0
  6 12  1  0
 12 13  2  0
 13 14  1  0
 14 15  2  0
 15 16  1  0
 16 17  1  0
 17 18  2  0
 17 19  1  0
 16 20  2  0
 20 12  1  0
  3 21  1  0
  4 22  1  0
  4 23  1  0
  5 24  1  0
  5 25  1  0
  7 26  1  0
  7 27  1  0
  8 28  1  0
  8 29  1  0
 11 30  1  0
 13 31  1  0
 14 32  1  0
 15 33  1  0
 19 34  1  0
 20 35  1  0
M  END
>  <loss>  (24) 
0.8033558130264282

>  <score>  (24) 
-14.771682739257812

$$$$
UIAFDRRSIISFKN-UHFFFAOYSA-N
     RDKit          3D

 35 35  0  0  0  0  0  0  0  0999 V2000
  119.8310  118.4277   90.5589 O   0  0  0  0  0  0  0  0  0  0  0  0
  119.7742  119.2395   89.6515 C   0  0  0  0  0  0  0  0  0  0  0  0
  118.6316  119.9100   89.4036 O   0  0  0  0  0  0  0  0  0  0  0  0
  120.8756  119.6403   88.7170 C   0  0  0  0  0  0  0  0  0  0  0  0
  122.1755  119.8398   89.4887 C   0  0  0  0  0  0  0  0  0  0  0  0
  122.5073  121.2846   89.5661 N   0  0  0  0  0  0  0  0  0  0  0  0
  122.7801  121.8082   90.9234 C   0  0  0  0  0  0  0  0  0  0  0  0
  121.4906  122.2837   91.5855 C   0  0  0  0  0  0  0  0  0  0  0  0
  121.6774  123.6566   92.1582 C   0  0  0  0  0  0  0  0  0  0  0  0
  122.3942  123.9805   93.0891 O   0  0  0  0  0  0  0  0  0  0  0  0
  120.9160  124.5737   91.5289 O   0  0  0  0  0  0  0  0  0  0  0  0
  123.4440  121.6525   88.5758 C   0  0  0  0  0  0  0  0  0  0  0  0
  123.0206  122.4726   87.5180 C   0  0  0  0  0  0  0  0  0  0  0  0
  123.8954  122.8584   86.5000 C   0  0  0  0  0  0  0  0  0  0  0  0
  125.2176  122.4234   86.5210 C   0  0  0  0  0  0  0  0  0  0  0  0
  125.6637  121.6019   87.5612 C   0  0  0  0  0  0  0  0  0  0  0  0
  127.0776  121.1563   87.5423 C   0  0  0  0  0  0  0  0  0  0  0  0
  127.8655  121.3236   86.6296 O   0  0  0  0  0  0  0  0  0  0  0  0
  127.4432  120.5197   88.6690 O   0  0  0  0  0  0  0  0  0  0  0  0
  124.7782  121.2195   88.5806 C   0  0  0  0  0  0  0  0  0  0  0  0
  118.5940  120.5677   88.6647 H   0  0  0  0  0  0  0  0  0  0  0  0
  121.0178  118.8514   87.9637 H   0  0  0  0  0  0  0  0  0  0  0  0
  120.6022  120.5852   88.2249 H   0  0  0  0  0  0  0  0  0  0  0  0
  122.0596  119.4382   90.5062 H   0  0  0  0  0  0  0  0  0  0  0  0
  122.9876  119.3117   88.9676 H   0  0  0  0  0  0  0  0  0  0  0  0
  123.2277  121.0111   91.5350 H   0  0  0  0  0  0  0  0  0  0  0  0
  123.4715  122.6599   90.8422 H   0  0  0  0  0  0  0  0  0  0  0  0
  120.6856  122.3091   90.8363 H   0  0  0  0  0  0  0  0  0  0  0  0
  121.2272  121.5895   92.3971 H   0  0  0  0  0  0  0  0  0  0  0  0
  120.9470  125.5217   91.8125 H   0  0  0  0  0  0  0  0  0  0  0  0
  121.9769  122.8190   87.4904 H   0  0  0  0  0  0  0  0  0  0  0  0
  123.5405  123.5045   85.6835 H   0  0  0  0  0  0  0  0  0  0  0  0
  125.9099  122.7251   85.7213 H   0  0  0  0  0  0  0  0  0  0  0  0
  128.3671  120.1778   88.7668 H   0  0  0  0  0  0  0  0  0  0  0  0
  125.1353  120.5714   89.3945 H   0  0  0  0  0  0  0  0  0  0  0  0
  1  2  2  0
  2  3  1  0
  2  4  1  0
  4  5  1  0
  5  6  1  0
  6  7  1  0
  7  8  1  0
  8  9  1  0
  9 10  2  0
  9 11  1  0
  6 12  1  0
 12 13  2  0
 13 14  1  0
 14 15  2  0
 15 16  1  0
 16 17  1  0
 17 18  2  0
 17 19  1  0
 16 20  2  0
 20 12  1  0
  3 21  1  0
  4 22  1  0
  4 23  1  0
  5 24  1  0
  5 25  1  0
  7 26  1  0
  7 27  1  0
  8 28  1  0
  8 29  1  0
 11 30  1  0
 13 31  1  0
 14 32  1  0
 15 33  1  0
 19 34  1  0
 20 35  1  0
M  END
>  <loss>  (25) 
0.8481305837631226

>  <score>  (25) 
-17.88132095336914

$$$$
