ULFYPRPOCVMQPB-UHFFFAOYSA-N
     RDKit          3D

 38 38  0  0  0  0  0  0  0  0999 V2000
  118.2703  124.0892   83.4469 C   0  0  0  0  0  0  0  0  0  0  0  0
  119.7677  124.1869   83.3436 C   0  0  0  0  0  0  0  0  0  0  0  0
  120.3418  125.2353   83.0718 O   0  0  0  0  0  0  0  0  0  0  0  0
  120.4152  122.9931   83.5641 N   0  0  0  0  0  0  0  0  0  0  0  0
  121.7499  122.7622   83.0369 C   0  0  0  0  0  0  0  0  0  0  0  0
  122.8064  122.7976   84.1389 C   0  0  0  0  0  0  0  0  0  0  0  0
  122.5876  121.6761   85.0135 O   0  0  0  0  0  0  0  0  0  0  0  0
  123.4245  121.7476   86.0973 C   0  0  0  0  0  0  0  0  0  0  0  0
  124.7998  121.5952   85.8859 C   0  0  0  0  0  0  0  0  0  0  0  0
  125.6988  121.6334   86.9606 C   0  0  0  0  0  0  0  0  0  0  0  0
  127.1702  121.4757   86.7037 C   0  0  0  0  0  0  0  0  0  0  0  0
  125.1838  121.8128   88.2510 C   0  0  0  0  0  0  0  0  0  0  0  0
  126.2179  121.8739   89.6345 Cl  0  0  0  0  0  0  0  0  0  0  0  0
  123.8047  121.9403   88.4603 C   0  0  0  0  0  0  0  0  0  0  0  0
  122.8976  121.8974   87.3875 C   0  0  0  0  0  0  0  0  0  0  0  0
  121.4019  122.0156   87.6315 C   0  0  0  0  0  0  0  0  0  0  0  0
  120.8325  120.7555   88.2897 C   0  0  0  0  0  0  0  0  0  0  0  0
  121.0688  123.2611   88.4572 C   0  0  0  0  0  0  0  0  0  0  0  0
  117.9764  124.0700   84.5068 H   0  0  0  0  0  0  0  0  0  0  0  0
  117.8113  124.9593   82.9548 H   0  0  0  0  0  0  0  0  0  0  0  0
  117.9282  123.1668   82.9548 H   0  0  0  0  0  0  0  0  0  0  0  0
  119.9485  122.2543   84.1093 H   0  0  0  0  0  0  0  0  0  0  0  0
  121.7753  121.7760   82.5503 H   0  0  0  0  0  0  0  0  0  0  0  0
  121.9777  123.5627   82.3176 H   0  0  0  0  0  0  0  0  0  0  0  0
  123.8101  122.7313   83.6937 H   0  0  0  0  0  0  0  0  0  0  0  0
  122.7317  123.7382   84.7043 H   0  0  0  0  0  0  0  0  0  0  0  0
  125.1794  121.4437   84.8647 H   0  0  0  0  0  0  0  0  0  0  0  0
  127.7058  121.4183   87.6628 H   0  0  0  0  0  0  0  0  0  0  0  0
  127.3456  120.5536   86.1301 H   0  0  0  0  0  0  0  0  0  0  0  0
  127.5369  122.3397   86.1301 H   0  0  0  0  0  0  0  0  0  0  0  0
  123.4245  122.0766   89.4834 H   0  0  0  0  0  0  0  0  0  0  0  0
  120.9216  122.1216   86.6476 H   0  0  0  0  0  0  0  0  0  0  0  0
  120.8797  120.8600   89.3837 H   0  0  0  0  0  0  0  0  0  0  0  0
  119.7860  120.6205   87.9791 H   0  0  0  0  0  0  0  0  0  0  0  0
  121.4230  119.8809   87.9791 H   0  0  0  0  0  0  0  0  0  0  0  0
  121.1335  123.0190   89.5283 H   0  0  0  0  0  0  0  0  0  0  0  0
  121.7844  124.0615   88.2183 H   0  0  0  0  0  0  0  0  0  0  0  0
  120.0491  123.5975   88.2183 H   0  0  0  0  0  0  0  0  0  0  0  0
  1  2  1  0
  2  3  2  0
  2  4  1  0
  4  5  1  0
  5  6  1  0
  6  7  1  0
  7  8  1  0
  8  9  2  0
  9 10  1  0
 10 11  1  0
 10 12  2  0
 12 13  1  0
 12 14  1  0
 14 15  2  0
 15 16  1  0
 16 17  1  0
 16 18  1  0
 15  8  1  0
  1 19  1  0
  1 20  1  0
  1 21  1  0
  4 22  1  0
  5 23  1  0
  5 24  1  0
  6 25  1  0
  6 26  1  0
  9 27  1  0
 11 28  1  0
 11 29  1  0
 11 30  1  0
 14 31  1  0
 16 32  1  0
 17 33  1  0
 17 34  1  0
 17 35  1  0
 18 36  1  0
 18 37  1  0
 18 38  1  0
M  END
>  <loss>  (1) 
0.5022989511489868

>  <score>  (1) 
4.015664100646973

$$$$
ULFYPRPOCVMQPB-UHFFFAOYSA-N
     RDKit          3D

 38 38  0  0  0  0  0  0  0  0999 V2000
  118.2349  124.1132   83.4240 C   0  0  0  0  0  0  0  0  0  0  0  0
  119.7368  124.1661   83.3409 C   0  0  0  0  0  0  0  0  0  0  0  0
  120.3380  125.2028   83.0817 O   0  0  0  0  0  0  0  0  0  0  0  0
  120.3619  122.9654   83.5828 N   0  0  0  0  0  0  0  0  0  0  0  0
  121.6296  122.6277   82.9605 C   0  0  0  0  0  0  0  0  0  0  0  0
  122.8250  122.6941   83.9148 C   0  0  0  0  0  0  0  0  0  0  0  0
  122.5365  121.8628   85.0412 O   0  0  0  0  0  0  0  0  0  0  0  0
  123.4430  121.8324   86.0684 C   0  0  0  0  0  0  0  0  0  0  0  0
  124.8285  121.7064   85.8906 C   0  0  0  0  0  0  0  0  0  0  0  0
  125.7091  121.6788   86.9862 C   0  0  0  0  0  0  0  0  0  0  0  0
  127.1863  121.5403   86.7462 C   0  0  0  0  0  0  0  0  0  0  0  0
  125.1757  121.7780   88.2750 C   0  0  0  0  0  0  0  0  0  0  0  0
  126.1846  121.7540   89.6773 Cl  0  0  0  0  0  0  0  0  0  0  0  0
  123.7969  121.8989   88.4629 C   0  0  0  0  0  0  0  0  0  0  0  0
  122.9107  121.9272   87.3694 C   0  0  0  0  0  0  0  0  0  0  0  0
  121.4107  122.0566   87.6114 C   0  0  0  0  0  0  0  0  0  0  0  0
  120.8341  120.7867   88.2448 C   0  0  0  0  0  0  0  0  0  0  0  0
  121.0813  123.2880   88.4610 C   0  0  0  0  0  0  0  0  0  0  0  0
  117.9262  124.1023   84.4797 H   0  0  0  0  0  0  0  0  0  0  0  0
  117.8088  124.9968   82.9265 H   0  0  0  0  0  0  0  0  0  0  0  0
  117.8720  123.2017   82.9265 H   0  0  0  0  0  0  0  0  0  0  0  0
  119.9199  122.2887   84.2213 H   0  0  0  0  0  0  0  0  0  0  0  0
  121.5592  121.6041   82.5639 H   0  0  0  0  0  0  0  0  0  0  0  0
  121.8078  123.3741   82.1723 H   0  0  0  0  0  0  0  0  0  0  0  0
  123.7301  122.3318   83.4053 H   0  0  0  0  0  0  0  0  0  0  0  0
  122.9986  123.7308   84.2389 H   0  0  0  0  0  0  0  0  0  0  0  0
  125.2351  121.6275   84.8715 H   0  0  0  0  0  0  0  0  0  0  0  0
  127.7116  121.4911   87.7114 H   0  0  0  0  0  0  0  0  0  0  0  0
  127.3805  120.6200   86.1758 H   0  0  0  0  0  0  0  0  0  0  0  0
  127.5481  122.4085   86.1758 H   0  0  0  0  0  0  0  0  0  0  0  0
  123.3960  121.9735   89.4845 H   0  0  0  0  0  0  0  0  0  0  0  0
  120.9345  122.1901   86.6289 H   0  0  0  0  0  0  0  0  0  0  0  0
  120.8734  120.8731   89.3407 H   0  0  0  0  0  0  0  0  0  0  0  0
  119.7897  120.6587   87.9243 H   0  0  0  0  0  0  0  0  0  0  0  0
  121.4253  119.9161   87.9243 H   0  0  0  0  0  0  0  0  0  0  0  0
  121.1511  123.0272   89.5273 H   0  0  0  0  0  0  0  0  0  0  0  0
  121.7958  124.0927   88.2328 H   0  0  0  0  0  0  0  0  0  0  0  0
  120.0605  123.6285   88.2328 H   0  0  0  0  0  0  0  0  0  0  0  0
  1  2  1  0
  2  3  2  0
  2  4  1  0
  4  5  1  0
  5  6  1  0
  6  7  1  0
  7  8  1  0
  8  9  2  0
  9 10  1  0
 10 11  1  0
 10 12  2  0
 12 13  1  0
 12 14  1  0
 14 15  2  0
 15 16  1  0
 16 17  1  0
 16 18  1  0
 15  8  1  0
  1 19  1  0
  1 20  1  0
  1 21  1  0
  4 22  1  0
  5 23  1  0
  5 24  1  0
  6 25  1  0
  6 26  1  0
  9 27  1  0
 11 28  1  0
 11 29  1  0
 11 30  1  0
 14 31  1  0
 16 32  1  0
 17 33  1  0
 17 34  1  0
 17 35  1  0
 18 36  1  0
 18 37  1  0
 18 38  1  0
M  END
>  <loss>  (2) 
0.4992005527019501

>  <score>  (2) 
3.9617717266082764

$$$$
ULFYPRPOCVMQPB-UHFFFAOYSA-N
     RDKit          3D

 38 38  0  0  0  0  0  0  0  0999 V2000
  118.6751  124.9985   83.3681 C   0  0  0  0  0  0  0  0  0  0  0  0
  119.3559  123.6590   83.4546 C   0  0  0  0  0  0  0  0  0  0  0  0
  118.7516  122.6079   83.2722 O   0  0  0  0  0  0  0  0  0  0  0  0
  120.6975  123.7234   83.7500 N   0  0  0  0  0  0  0  0  0  0  0  0
  121.6758  122.9332   83.0240 C   0  0  0  0  0  0  0  0  0  0  0  0
  122.9344  122.6095   83.8333 C   0  0  0  0  0  0  0  0  0  0  0  0
  122.5284  121.9516   85.0356 O   0  0  0  0  0  0  0  0  0  0  0  0
  123.4305  121.8750   86.0643 C   0  0  0  0  0  0  0  0  0  0  0  0
  124.8177  121.7680   85.8871 C   0  0  0  0  0  0  0  0  0  0  0  0
  125.6937  121.6937   86.9841 C   0  0  0  0  0  0  0  0  0  0  0  0
  127.1733  121.5822   86.7446 C   0  0  0  0  0  0  0  0  0  0  0  0
  125.1544  121.7305   88.2738 C   0  0  0  0  0  0  0  0  0  0  0  0
  126.1572  121.6432   89.6780 Cl  0  0  0  0  0  0  0  0  0  0  0  0
  123.7747  121.8416   88.4609 C   0  0  0  0  0  0  0  0  0  0  0  0
  122.8931  121.9174   87.3659 C   0  0  0  0  0  0  0  0  0  0  0  0
  121.3925  122.0414   87.6071 C   0  0  0  0  0  0  0  0  0  0  0  0
  121.0684  123.2066   88.5473 C   0  0  0  0  0  0  0  0  0  0  0  0
  120.7994  120.7320   88.1365 C   0  0  0  0  0  0  0  0  0  0  0  0
  118.4822  125.3780   84.3824 H   0  0  0  0  0  0  0  0  0  0  0  0
  119.3234  125.7052   82.8293 H   0  0  0  0  0  0  0  0  0  0  0  0
  117.7221  124.8913   82.8293 H   0  0  0  0  0  0  0  0  0  0  0  0
  121.0163  124.3476   84.5048 H   0  0  0  0  0  0  0  0  0  0  0  0
  121.2030  121.9860   82.7249 H   0  0  0  0  0  0  0  0  0  0  0  0
  121.9965  123.5355   82.1612 H   0  0  0  0  0  0  0  0  0  0  0  0
  123.5935  121.9492   83.2506 H   0  0  0  0  0  0  0  0  0  0  0  0
  123.4852  123.5320   84.0692 H   0  0  0  0  0  0  0  0  0  0  0  0
  125.2292  121.7416   84.8673 H   0  0  0  0  0  0  0  0  0  0  0  0
  127.6991  121.5426   87.7100 H   0  0  0  0  0  0  0  0  0  0  0  0
  127.3844  120.6656   86.1742 H   0  0  0  0  0  0  0  0  0  0  0  0
  127.5194  122.4569   86.1742 H   0  0  0  0  0  0  0  0  0  0  0  0
  123.3694  121.8704   89.4831 H   0  0  0  0  0  0  0  0  0  0  0  0
  120.9247  122.2544   86.6346 H   0  0  0  0  0  0  0  0  0  0  0  0
  121.1614  122.8723   89.5911 H   0  0  0  0  0  0  0  0  0  0  0  0
  121.7709  124.0328   88.3629 H   0  0  0  0  0  0  0  0  0  0  0  0
  120.0403  123.5515   88.3629 H   0  0  0  0  0  0  0  0  0  0  0  0
  120.8053  120.7451   89.2364 H   0  0  0  0  0  0  0  0  0  0  0  0
  119.7654  120.6259   87.7766 H   0  0  0  0  0  0  0  0  0  0  0  0
  121.4016  119.8848   87.7766 H   0  0  0  0  0  0  0  0  0  0  0  0
  1  2  1  0
  2  3  2  0
  2  4  1  0
  4  5  1  0
  5  6  1  0
  6  7  1  0
  7  8  1  0
  8  9  2  0
  9 10  1  0
 10 11  1  0
 10 12  2  0
 12 13  1  0
 12 14  1  0
 14 15  2  0
 15 16  1  0
 16 17  1  0
 16 18  1  0
 15  8  1  0
  1 19  1  0
  1 20  1  0
  1 21  1  0
  4 22  1  0
  5 23  1  0
  5 24  1  0
  6 25  1  0
  6 26  1  0
  9 27  1  0
 11 28  1  0
 11 29  1  0
 11 30  1  0
 14 31  1  0
 16 32  1  0
 17 33  1  0
 17 34  1  0
 17 35  1  0
 18 36  1  0
 18 37  1  0
 18 38  1  0
M  END
>  <loss>  (3) 
0.5156700611114502

>  <score>  (3) 
3.8041467666625977

$$$$
ULFYPRPOCVMQPB-UHFFFAOYSA-N
     RDKit          3D

 38 38  0  0  0  0  0  0  0  0999 V2000
  118.2573  124.2285   83.3322 C   0  0  0  0  0  0  0  0  0  0  0  0
  119.7401  124.0320   83.1670 C   0  0  0  0  0  0  0  0  0  0  0  0
  120.4538  124.8663   82.6195 O   0  0  0  0  0  0  0  0  0  0  0  0
  120.2174  122.8543   83.6934 N   0  0  0  0  0  0  0  0  0  0  0  0
  121.3134  122.1392   83.0602 C   0  0  0  0  0  0  0  0  0  0  0  0
  122.4292  121.7366   84.0352 C   0  0  0  0  0  0  0  0  0  0  0  0
  122.6265  122.7218   85.0635 O   0  0  0  0  0  0  0  0  0  0  0  0
  123.4551  122.3542   86.0905 C   0  0  0  0  0  0  0  0  0  0  0  0
  124.8315  122.1787   85.8991 C   0  0  0  0  0  0  0  0  0  0  0  0
  125.6707  121.8110   86.9621 C   0  0  0  0  0  0  0  0  0  0  0  0
  127.1453  121.6523   86.7202 C   0  0  0  0  0  0  0  0  0  0  0  0
  125.0970  121.5954   88.2200 C   0  0  0  0  0  0  0  0  0  0  0  0
  126.0551  121.1489   89.5861 Cl  0  0  0  0  0  0  0  0  0  0  0  0
  123.7174  121.7319   88.4056 C   0  0  0  0  0  0  0  0  0  0  0  0
  122.8723  122.1033   87.3444 C   0  0  0  0  0  0  0  0  0  0  0  0
  121.3709  122.2312   87.5659 C   0  0  0  0  0  0  0  0  0  0  0  0
  120.7869  120.9611   88.1917 C   0  0  0  0  0  0  0  0  0  0  0  0
  121.0291  123.4618   88.4113 C   0  0  0  0  0  0  0  0  0  0  0  0
  118.0088  124.2615   84.4032 H   0  0  0  0  0  0  0  0  0  0  0  0
  117.9576  125.1742   82.8570 H   0  0  0  0  0  0  0  0  0  0  0  0
  117.7216  123.3935   82.8570 H   0  0  0  0  0  0  0  0  0  0  0  0
  119.7914  122.4729   84.5501 H   0  0  0  0  0  0  0  0  0  0  0  0
  120.9112  121.2266   82.5961 H   0  0  0  0  0  0  0  0  0  0  0  0
  121.7604  122.8216   82.3223 H   0  0  0  0  0  0  0  0  0  0  0  0
  122.1607  120.7797   84.5067 H   0  0  0  0  0  0  0  0  0  0  0  0
  123.3650  121.6494   83.4637 H   0  0  0  0  0  0  0  0  0  0  0  0
  125.2620  122.3317   84.8985 H   0  0  0  0  0  0  0  0  0  0  0  0
  127.6711  121.5957   87.6847 H   0  0  0  0  0  0  0  0  0  0  0  0
  127.3260  120.7295   86.1494 H   0  0  0  0  0  0  0  0  0  0  0  0
  127.5182  122.5155   86.1494 H   0  0  0  0  0  0  0  0  0  0  0  0
  123.2853  121.5452   89.3998 H   0  0  0  0  0  0  0  0  0  0  0  0
  120.9083  122.3644   86.5768 H   0  0  0  0  0  0  0  0  0  0  0  0
  120.8241  121.0421   89.2881 H   0  0  0  0  0  0  0  0  0  0  0  0
  119.7425  120.8398   87.8682 H   0  0  0  0  0  0  0  0  0  0  0  0
  121.3745  120.0893   87.8682 H   0  0  0  0  0  0  0  0  0  0  0  0
  121.1005  123.2047   89.4785 H   0  0  0  0  0  0  0  0  0  0  0  0
  121.7361  124.2725   88.1814 H   0  0  0  0  0  0  0  0  0  0  0  0
  120.0053  123.7918   88.1814 H   0  0  0  0  0  0  0  0  0  0  0  0
  1  2  1  0
  2  3  2  0
  2  4  1  0
  4  5  1  0
  5  6  1  0
  6  7  1  0
  7  8  1  0
  8  9  2  0
  9 10  1  0
 10 11  1  0
 10 12  2  0
 12 13  1  0
 12 14  1  0
 14 15  2  0
 15 16  1  0
 16 17  1  0
 16 18  1  0
 15  8  1  0
  1 19  1  0
  1 20  1  0
  1 21  1  0
  4 22  1  0
  5 23  1  0
  5 24  1  0
  6 25  1  0
  6 26  1  0
  9 27  1  0
 11 28  1  0
 11 29  1  0
 11 30  1  0
 14 31  1  0
 16 32  1  0
 17 33  1  0
 17 34  1  0
 17 35  1  0
 18 36  1  0
 18 37  1  0
 18 38  1  0
M  END
>  <loss>  (4) 
0.5142336487770081

>  <score>  (4) 
3.6358652114868164

$$$$
ULFYPRPOCVMQPB-UHFFFAOYSA-N
     RDKit          3D

 38 38  0  0  0  0  0  0  0  0999 V2000
  118.2139  124.1893   83.3312 C   0  0  0  0  0  0  0  0  0  0  0  0
  119.6979  123.9942   83.1779 C   0  0  0  0  0  0  0  0  0  0  0  0
  120.4075  124.8060   82.5940 O   0  0  0  0  0  0  0  0  0  0  0  0
  120.1751  122.8297   83.7323 N   0  0  0  0  0  0  0  0  0  0  0  0
  121.3115  122.1297   83.1641 C   0  0  0  0  0  0  0  0  0  0  0  0
  122.3084  121.6359   84.2134 C   0  0  0  0  0  0  0  0  0  0  0  0
  122.7451  122.7697   84.9790 O   0  0  0  0  0  0  0  0  0  0  0  0
  123.4906  122.3565   86.0527 C   0  0  0  0  0  0  0  0  0  0  0  0
  124.8704  122.2012   85.8789 C   0  0  0  0  0  0  0  0  0  0  0  0
  125.6857  121.8047   86.9476 C   0  0  0  0  0  0  0  0  0  0  0  0
  127.1625  121.6369   86.7318 C   0  0  0  0  0  0  0  0  0  0  0  0
  125.0852  121.5797   88.1938 C   0  0  0  0  0  0  0  0  0  0  0  0
  126.0132  121.0831   89.5648 Cl  0  0  0  0  0  0  0  0  0  0  0  0
  123.7068  121.7583   88.3678 C   0  0  0  0  0  0  0  0  0  0  0  0
  122.8848  122.1622   87.3018 C   0  0  0  0  0  0  0  0  0  0  0  0
  121.3918  122.3675   87.5041 C   0  0  0  0  0  0  0  0  0  0  0  0
  121.1012  123.5820   88.3910 C   0  0  0  0  0  0  0  0  0  0  0  0
  120.7280  121.1090   88.0696 C   0  0  0  0  0  0  0  0  0  0  0  0
  117.9570  124.2230   84.4003 H   0  0  0  0  0  0  0  0  0  0  0  0
  117.9169  125.1342   82.8527 H   0  0  0  0  0  0  0  0  0  0  0  0
  117.6828  123.3532   82.8527 H   0  0  0  0  0  0  0  0  0  0  0  0
  119.7151  122.4457   84.5701 H   0  0  0  0  0  0  0  0  0  0  0  0
  120.9396  121.2612   82.6007 H   0  0  0  0  0  0  0  0  0  0  0  0
  121.8449  122.8455   82.5213 H   0  0  0  0  0  0  0  0  0  0  0  0
  121.8221  120.9038   84.8748 H   0  0  0  0  0  0  0  0  0  0  0  0
  123.1668  121.1503   83.7261 H   0  0  0  0  0  0  0  0  0  0  0  0
  125.3197  122.3924   84.8932 H   0  0  0  0  0  0  0  0  0  0  0  0
  127.6711  121.5791   87.7054 H   0  0  0  0  0  0  0  0  0  0  0  0
  127.3476  120.7120   86.1659 H   0  0  0  0  0  0  0  0  0  0  0  0
  127.5504  122.4968   86.1659 H   0  0  0  0  0  0  0  0  0  0  0  0
  123.2597  121.5791   89.3567 H   0  0  0  0  0  0  0  0  0  0  0  0
  120.9562  122.5667   86.5138 H   0  0  0  0  0  0  0  0  0  0  0  0
  121.1713  123.2888   89.4488 H   0  0  0  0  0  0  0  0  0  0  0  0
  121.8352  124.3738   88.1805 H   0  0  0  0  0  0  0  0  0  0  0  0
  120.0882  123.9558   88.1805 H   0  0  0  0  0  0  0  0  0  0  0  0
  120.7478  121.1464   89.1688 H   0  0  0  0  0  0  0  0  0  0  0  0
  119.6853  121.0572   87.7231 H   0  0  0  0  0  0  0  0  0  0  0  0
  121.2741  120.2192   87.7231 H   0  0  0  0  0  0  0  0  0  0  0  0
  1  2  1  0
  2  3  2  0
  2  4  1  0
  4  5  1  0
  5  6  1  0
  6  7  1  0
  7  8  1  0
  8  9  2  0
  9 10  1  0
 10 11  1  0
 10 12  2  0
 12 13  1  0
 12 14  1  0
 14 15  2  0
 15 16  1  0
 16 17  1  0
 16 18  1  0
 15  8  1  0
  1 19  1  0
  1 20  1  0
  1 21  1  0
  4 22  1  0
  5 23  1  0
  5 24  1  0
  6 25  1  0
  6 26  1  0
  9 27  1  0
 11 28  1  0
 11 29  1  0
 11 30  1  0
 14 31  1  0
 16 32  1  0
 17 33  1  0
 17 34  1  0
 17 35  1  0
 18 36  1  0
 18 37  1  0
 18 38  1  0
M  END
>  <loss>  (5) 
0.5240586400032043

>  <score>  (5) 
3.594731330871582

$$$$
ULFYPRPOCVMQPB-UHFFFAOYSA-N
     RDKit          3D

 38 38  0  0  0  0  0  0  0  0999 V2000
  117.7056  124.0626   84.2515 C   0  0  0  0  0  0  0  0  0  0  0  0
  119.1589  124.0352   83.8625 C   0  0  0  0  0  0  0  0  0  0  0  0
  119.7352  125.0211   83.4159 O   0  0  0  0  0  0  0  0  0  0  0  0
  119.7678  122.8147   84.0377 N   0  0  0  0  0  0  0  0  0  0  0  0
  121.0415  122.5069   83.4153 C   0  0  0  0  0  0  0  0  0  0  0  0
  122.2263  122.5970   84.3780 C   0  0  0  0  0  0  0  0  0  0  0  0
  122.0342  121.6184   85.4113 O   0  0  0  0  0  0  0  0  0  0  0  0
  123.0293  121.7191   86.3489 C   0  0  0  0  0  0  0  0  0  0  0  0
  122.7887  121.2008   87.6262 C   0  0  0  0  0  0  0  0  0  0  0  0
  123.7780  121.2539   88.6175 C   0  0  0  0  0  0  0  0  0  0  0  0
  123.4908  120.6983   89.9830 C   0  0  0  0  0  0  0  0  0  0  0  0
  125.0145  121.8278   88.2924 C   0  0  0  0  0  0  0  0  0  0  0  0
  126.2893  121.9401   89.4542 Cl  0  0  0  0  0  0  0  0  0  0  0  0
  125.2577  122.3249   87.0056 C   0  0  0  0  0  0  0  0  0  0  0  0
  124.2722  122.2687   86.0052 C   0  0  0  0  0  0  0  0  0  0  0  0
  124.5506  122.7976   84.6070 C   0  0  0  0  0  0  0  0  0  0  0  0
  125.4432  121.8440   83.8070 C   0  0  0  0  0  0  0  0  0  0  0  0
  125.1584  124.2021   84.6536 C   0  0  0  0  0  0  0  0  0  0  0  0
  117.6195  124.0643   85.3481 H   0  0  0  0  0  0  0  0  0  0  0  0
  117.2344  124.9698   83.8454 H   0  0  0  0  0  0  0  0  0  0  0  0
  117.2005  123.1739   83.8454 H   0  0  0  0  0  0  0  0  0  0  0  0
  119.3091  122.1029   84.6241 H   0  0  0  0  0  0  0  0  0  0  0  0
  120.9952  121.4837   83.0144 H   0  0  0  0  0  0  0  0  0  0  0  0
  121.2066  123.2559   82.6268 H   0  0  0  0  0  0  0  0  0  0  0  0
  123.1624  122.3910   83.8381 H   0  0  0  0  0  0  0  0  0  0  0  0
  122.2890  123.6052   84.8135 H   0  0  0  0  0  0  0  0  0  0  0  0
  121.8131  120.7471   87.8547 H   0  0  0  0  0  0  0  0  0  0  0  0
  123.8537  121.4003   90.7482 H   0  0  0  0  0  0  0  0  0  0  0  0
  122.4063  120.5564   90.1004 H   0  0  0  0  0  0  0  0  0  0  0  0
  124.0019  119.7314   90.1004 H   0  0  0  0  0  0  0  0  0  0  0  0
  126.2378  122.7673   86.7738 H   0  0  0  0  0  0  0  0  0  0  0  0
  123.5830  122.8621   84.0877 H   0  0  0  0  0  0  0  0  0  0  0  0
  126.0270  121.2202   84.4999 H   0  0  0  0  0  0  0  0  0  0  0  0
  124.8160  121.1997   83.1733 H   0  0  0  0  0  0  0  0  0  0  0  0
  126.1275  122.4272   83.1733 H   0  0  0  0  0  0  0  0  0  0  0  0
  125.2914  124.5095   85.7013 H   0  0  0  0  0  0  0  0  0  0  0  0
  126.1345  124.1962   84.1464 H   0  0  0  0  0  0  0  0  0  0  0  0
  124.4859  124.9096   84.1464 H   0  0  0  0  0  0  0  0  0  0  0  0
  1  2  1  0
  2  3  2  0
  2  4  1  0
  4  5  1  0
  5  6  1  0
  6  7  1  0
  7  8  1  0
  8  9  2  0
  9 10  1  0
 10 11  1  0
 10 12  2  0
 12 13  1  0
 12 14  1  0
 14 15  2  0
 15 16  1  0
 16 17  1  0
 16 18  1  0
 15  8  1  0
  1 19  1  0
  1 20  1  0
  1 21  1  0
  4 22  1  0
  5 23  1  0
  5 24  1  0
  6 25  1  0
  6 26  1  0
  9 27  1  0
 11 28  1  0
 11 29  1  0
 11 30  1  0
 14 31  1  0
 16 32  1  0
 17 33  1  0
 17 34  1  0
 17 35  1  0
 18 36  1  0
 18 37  1  0
 18 38  1  0
M  END
>  <loss>  (6) 
0.5778036713600159

>  <score>  (6) 
3.564213275909424

$$$$
ULFYPRPOCVMQPB-UHFFFAOYSA-N
     RDKit          3D

 38 38  0  0  0  0  0  0  0  0999 V2000
  117.7191  124.0676   84.2943 C   0  0  0  0  0  0  0  0  0  0  0  0
  119.1560  124.0290   83.8493 C   0  0  0  0  0  0  0  0  0  0  0  0
  119.7159  125.0044   83.3609 O   0  0  0  0  0  0  0  0  0  0  0  0
  119.7693  122.8108   84.0247 N   0  0  0  0  0  0  0  0  0  0  0  0
  121.0483  122.5106   83.4095 C   0  0  0  0  0  0  0  0  0  0  0  0
  122.2267  122.6044   84.3796 C   0  0  0  0  0  0  0  0  0  0  0  0
  122.0274  121.6300   85.4157 O   0  0  0  0  0  0  0  0  0  0  0  0
  123.0246  121.7244   86.3516 C   0  0  0  0  0  0  0  0  0  0  0  0
  122.7853  121.2017   87.6274 C   0  0  0  0  0  0  0  0  0  0  0  0
  123.7766  121.2482   88.6169 C   0  0  0  0  0  0  0  0  0  0  0  0
  123.4906  120.6880   89.9808 C   0  0  0  0  0  0  0  0  0  0  0  0
  125.0140  121.8201   88.2916 C   0  0  0  0  0  0  0  0  0  0  0  0
  126.2914  121.9245   89.4513 Cl  0  0  0  0  0  0  0  0  0  0  0  0
  125.2560  122.3217   87.0063 C   0  0  0  0  0  0  0  0  0  0  0  0
  124.2683  122.2720   86.0077 C   0  0  0  0  0  0  0  0  0  0  0  0
  124.5453  122.8058   84.6111 C   0  0  0  0  0  0  0  0  0  0  0  0
  125.4454  121.8598   83.8104 C   0  0  0  0  0  0  0  0  0  0  0  0
  125.1437  124.2142   84.6615 C   0  0  0  0  0  0  0  0  0  0  0  0
  117.6756  124.0688   85.3935 H   0  0  0  0  0  0  0  0  0  0  0  0
  117.2398  124.9790   83.9074 H   0  0  0  0  0  0  0  0  0  0  0  0
  117.1915  123.1834   83.9074 H   0  0  0  0  0  0  0  0  0  0  0  0
  119.3101  122.0952   84.6060 H   0  0  0  0  0  0  0  0  0  0  0  0
  121.0095  121.4880   83.0060 H   0  0  0  0  0  0  0  0  0  0  0  0
  121.2145  123.2621   82.6236 H   0  0  0  0  0  0  0  0  0  0  0  0
  123.1663  122.3959   83.8469 H   0  0  0  0  0  0  0  0  0  0  0  0
  122.2868  123.6143   84.8114 H   0  0  0  0  0  0  0  0  0  0  0  0
  121.8088  120.7496   87.8560 H   0  0  0  0  0  0  0  0  0  0  0  0
  123.8490  121.3900   90.7481 H   0  0  0  0  0  0  0  0  0  0  0  0
  122.4068  120.5402   90.0966 H   0  0  0  0  0  0  0  0  0  0  0  0
  124.0066  119.7234   90.0966 H   0  0  0  0  0  0  0  0  0  0  0  0
  126.2368  122.7624   86.7743 H   0  0  0  0  0  0  0  0  0  0  0  0
  123.5781  122.8650   84.0904 H   0  0  0  0  0  0  0  0  0  0  0  0
  126.0346  121.2407   84.5028 H   0  0  0  0  0  0  0  0  0  0  0  0
  124.8234  121.2106   83.1767 H   0  0  0  0  0  0  0  0  0  0  0  0
  126.1247  122.4489   83.1767 H   0  0  0  0  0  0  0  0  0  0  0  0
  125.2736  124.5200   85.7102 H   0  0  0  0  0  0  0  0  0  0  0  0
  126.1203  124.2160   84.1554 H   0  0  0  0  0  0  0  0  0  0  0  0
  124.4671  124.9184   84.1554 H   0  0  0  0  0  0  0  0  0  0  0  0
  1  2  1  0
  2  3  2  0
  2  4  1  0
  4  5  1  0
  5  6  1  0
  6  7  1  0
  7  8  1  0
  8  9  2  0
  9 10  1  0
 10 11  1  0
 10 12  2  0
 12 13  1  0
 12 14  1  0
 14 15  2  0
 15 16  1  0
 16 17  1  0
 16 18  1  0
 15  8  1  0
  1 19  1  0
  1 20  1  0
  1 21  1  0
  4 22  1  0
  5 23  1  0
  5 24  1  0
  6 25  1  0
  6 26  1  0
  9 27  1  0
 11 28  1  0
 11 29  1  0
 11 30  1  0
 14 31  1  0
 16 32  1  0
 17 33  1  0
 17 34  1  0
 17 35  1  0
 18 36  1  0
 18 37  1  0
 18 38  1  0
M  END
>  <loss>  (7) 
0.5780202746391296

>  <score>  (7) 
3.5467653274536133

$$$$
ULFYPRPOCVMQPB-UHFFFAOYSA-N
     RDKit          3D

 38 38  0  0  0  0  0  0  0  0999 V2000
  117.7572  124.1214   83.9973 C   0  0  0  0  0  0  0  0  0  0  0  0
  119.1955  123.9145   83.6089 C   0  0  0  0  0  0  0  0  0  0  0  0
  119.7993  124.6937   82.8801 O   0  0  0  0  0  0  0  0  0  0  0  0
  119.7494  122.7692   84.1327 N   0  0  0  0  0  0  0  0  0  0  0  0
  120.8326  122.0853   83.4460 C   0  0  0  0  0  0  0  0  0  0  0  0
  121.9195  121.6307   84.4176 C   0  0  0  0  0  0  0  0  0  0  0  0
  121.8020  122.4053   85.6246 O   0  0  0  0  0  0  0  0  0  0  0  0
  122.8606  122.1508   86.4581 C   0  0  0  0  0  0  0  0  0  0  0  0
  122.5971  121.5997   87.7175 C   0  0  0  0  0  0  0  0  0  0  0  0
  123.6385  121.3433   88.6200 C   0  0  0  0  0  0  0  0  0  0  0  0
  123.3277  120.7433   89.9614 C   0  0  0  0  0  0  0  0  0  0  0  0
  124.9459  121.6666   88.2343 C   0  0  0  0  0  0  0  0  0  0  0  0
  126.2913  121.3839   89.2818 Cl  0  0  0  0  0  0  0  0  0  0  0  0
  125.2020  122.2406   86.9826 C   0  0  0  0  0  0  0  0  0  0  0  0
  124.1616  122.5053   86.0754 C   0  0  0  0  0  0  0  0  0  0  0  0
  124.4517  123.1483   84.7289 C   0  0  0  0  0  0  0  0  0  0  0  0
  125.0065  124.5672   84.8850 C   0  0  0  0  0  0  0  0  0  0  0  0
  125.3948  122.2824   83.8895 C   0  0  0  0  0  0  0  0  0  0  0  0
  117.6717  124.1337   85.0939 H   0  0  0  0  0  0  0  0  0  0  0  0
  117.4019  125.0799   83.5910 H   0  0  0  0  0  0  0  0  0  0  0  0
  117.1462  123.3019   83.5910 H   0  0  0  0  0  0  0  0  0  0  0  0
  119.3921  122.3919   85.0220 H   0  0  0  0  0  0  0  0  0  0  0  0
  120.4263  121.2040   82.9280 H   0  0  0  0  0  0  0  0  0  0  0  0
  121.2841  122.7892   82.7314 H   0  0  0  0  0  0  0  0  0  0  0  0
  121.7895  120.5628   84.6473 H   0  0  0  0  0  0  0  0  0  0  0  0
  122.9131  121.7776   83.9692 H   0  0  0  0  0  0  0  0  0  0  0  0
  121.5608  121.3652   88.0023 H   0  0  0  0  0  0  0  0  0  0  0  0
  123.6778  121.4193   90.7554 H   0  0  0  0  0  0  0  0  0  0  0  0
  122.2413  120.5987   90.0556 H   0  0  0  0  0  0  0  0  0  0  0  0
  123.8363  119.7725   90.0556 H   0  0  0  0  0  0  0  0  0  0  0  0
  126.2369  122.4890   86.7044 H   0  0  0  0  0  0  0  0  0  0  0  0
  123.4934  123.2240   84.1941 H   0  0  0  0  0  0  0  0  0  0  0  0
  125.1008  124.8084   85.9540 H   0  0  0  0  0  0  0  0  0  0  0  0
  125.9951  124.6291   84.4065 H   0  0  0  0  0  0  0  0  0  0  0  0
  124.3221  125.2832   84.4065 H   0  0  0  0  0  0  0  0  0  0  0  0
  126.0395  121.6905   84.5558 H   0  0  0  0  0  0  0  0  0  0  0  0
  124.8038  121.6057   83.2548 H   0  0  0  0  0  0  0  0  0  0  0  0
  126.0187  122.9289   83.2548 H   0  0  0  0  0  0  0  0  0  0  0  0
  1  2  1  0
  2  3  2  0
  2  4  1  0
  4  5  1  0
  5  6  1  0
  6  7  1  0
  7  8  1  0
  8  9  2  0
  9 10  1  0
 10 11  1  0
 10 12  2  0
 12 13  1  0
 12 14  1  0
 14 15  2  0
 15 16  1  0
 16 17  1  0
 16 18  1  0
 15  8  1  0
  1 19  1  0
  1 20  1  0
  1 21  1  0
  4 22  1  0
  5 23  1  0
  5 24  1  0
  6 25  1  0
  6 26  1  0
  9 27  1  0
 11 28  1  0
 11 29  1  0
 11 30  1  0
 14 31  1  0
 16 32  1  0
 17 33  1  0
 17 34  1  0
 17 35  1  0
 18 36  1  0
 18 37  1  0
 18 38  1  0
M  END
>  <loss>  (8) 
0.5807762742042542

>  <score>  (8) 
3.470632791519165

$$$$
ULFYPRPOCVMQPB-UHFFFAOYSA-N
     RDKit          3D

 38 38  0  0  0  0  0  0  0  0999 V2000
  117.7538  124.1412   83.9828 C   0  0  0  0  0  0  0  0  0  0  0  0
  119.1894  123.9181   83.5932 C   0  0  0  0  0  0  0  0  0  0  0  0
  119.7965  124.6818   82.8510 O   0  0  0  0  0  0  0  0  0  0  0  0
  119.7366  122.7768   84.1326 N   0  0  0  0  0  0  0  0  0  0  0  0
  120.8074  122.0704   83.4491 C   0  0  0  0  0  0  0  0  0  0  0  0
  121.8993  121.6246   84.4192 C   0  0  0  0  0  0  0  0  0  0  0  0
  121.8064  122.4300   85.6081 O   0  0  0  0  0  0  0  0  0  0  0  0
  122.8613  122.1679   86.4439 C   0  0  0  0  0  0  0  0  0  0  0  0
  122.5901  121.6308   87.7077 C   0  0  0  0  0  0  0  0  0  0  0  0
  123.6278  121.3675   88.6125 C   0  0  0  0  0  0  0  0  0  0  0  0
  123.3086  120.7829   89.9587 C   0  0  0  0  0  0  0  0  0  0  0  0
  124.9395  121.6696   88.2245 C   0  0  0  0  0  0  0  0  0  0  0  0
  126.2808  121.3771   89.2746 Cl  0  0  0  0  0  0  0  0  0  0  0  0
  125.2036  122.2298   86.9682 C   0  0  0  0  0  0  0  0  0  0  0  0
  124.1670  122.5012   86.0586 C   0  0  0  0  0  0  0  0  0  0  0  0
  124.4661  123.1292   84.7069 C   0  0  0  0  0  0  0  0  0  0  0  0
  125.0483  124.5382   84.8517 C   0  0  0  0  0  0  0  0  0  0  0  0
  125.3904  122.2396   83.8715 C   0  0  0  0  0  0  0  0  0  0  0  0
  117.6693  124.1543   85.0795 H   0  0  0  0  0  0  0  0  0  0  0  0
  117.4091  125.1037   83.5769 H   0  0  0  0  0  0  0  0  0  0  0  0
  117.1333  123.3287   83.5769 H   0  0  0  0  0  0  0  0  0  0  0  0
  119.3832  122.4186   85.0313 H   0  0  0  0  0  0  0  0  0  0  0  0
  120.3886  121.1832   82.9517 H   0  0  0  0  0  0  0  0  0  0  0  0
  121.2584  122.7566   82.7172 H   0  0  0  0  0  0  0  0  0  0  0  0
  121.7576  120.5646   84.6765 H   0  0  0  0  0  0  0  0  0  0  0  0
  122.8895  121.7469   83.9561 H   0  0  0  0  0  0  0  0  0  0  0  0
  121.5506  121.4128   87.9942 H   0  0  0  0  0  0  0  0  0  0  0  0
  123.6761  121.4560   90.7473 H   0  0  0  0  0  0  0  0  0  0  0  0
  122.2197  120.6626   90.0574 H   0  0  0  0  0  0  0  0  0  0  0  0
  123.7963  119.8019   90.0574 H   0  0  0  0  0  0  0  0  0  0  0  0
  126.2418  122.4616   86.6882 H   0  0  0  0  0  0  0  0  0  0  0  0
  123.5082  123.2195   84.1738 H   0  0  0  0  0  0  0  0  0  0  0  0
  125.1503  124.7850   85.9189 H   0  0  0  0  0  0  0  0  0  0  0  0
  126.0365  124.5779   84.3702 H   0  0  0  0  0  0  0  0  0  0  0  0
  124.3764  125.2639   84.3702 H   0  0  0  0  0  0  0  0  0  0  0  0
  126.0196  121.6340   84.5406 H   0  0  0  0  0  0  0  0  0  0  0  0
  124.7851  121.5756   83.2369 H   0  0  0  0  0  0  0  0  0  0  0  0
  126.0308  122.8698   83.2369 H   0  0  0  0  0  0  0  0  0  0  0  0
  1  2  1  0
  2  3  2  0
  2  4  1  0
  4  5  1  0
  5  6  1  0
  6  7  1  0
  7  8  1  0
  8  9  2  0
  9 10  1  0
 10 11  1  0
 10 12  2  0
 12 13  1  0
 12 14  1  0
 14 15  2  0
 15 16  1  0
 16 17  1  0
 16 18  1  0
 15  8  1  0
  1 19  1  0
  1 20  1  0
  1 21  1  0
  4 22  1  0
  5 23  1  0
  5 24  1  0
  6 25  1  0
  6 26  1  0
  9 27  1  0
 11 28  1  0
 11 29  1  0
 11 30  1  0
 14 31  1  0
 16 32  1  0
 17 33  1  0
 17 34  1  0
 17 35  1  0
 18 36  1  0
 18 37  1  0
 18 38  1  0
M  END
>  <loss>  (9) 
0.5805627703666687

>  <score>  (9) 
3.46281099319458

$$$$
ULFYPRPOCVMQPB-UHFFFAOYSA-N
     RDKit          3D

 38 38  0  0  0  0  0  0  0  0999 V2000
  117.6518  123.9271   84.3398 C   0  0  0  0  0  0  0  0  0  0  0  0
  119.0997  123.8559   83.9385 C   0  0  0  0  0  0  0  0  0  0  0  0
  119.6052  124.6503   83.1537 O   0  0  0  0  0  0  0  0  0  0  0  0
  119.7828  122.8126   84.5198 N   0  0  0  0  0  0  0  0  0  0  0  0
  120.9393  122.2239   83.8651 C   0  0  0  0  0  0  0  0  0  0  0  0
  121.8310  121.4789   84.8560 C   0  0  0  0  0  0  0  0  0  0  0  0
  121.7619  122.1539   86.1249 O   0  0  0  0  0  0  0  0  0  0  0  0
  122.9240  121.9654   86.8279 C   0  0  0  0  0  0  0  0  0  0  0  0
  122.8466  121.3679   88.0914 C   0  0  0  0  0  0  0  0  0  0  0  0
  123.9996  121.1745   88.8647 C   0  0  0  0  0  0  0  0  0  0  0  0
  123.8883  120.5228   90.2134 C   0  0  0  0  0  0  0  0  0  0  0  0
  125.2269  121.6080   88.3468 C   0  0  0  0  0  0  0  0  0  0  0  0
  126.6993  121.4093   89.2297 Cl  0  0  0  0  0  0  0  0  0  0  0  0
  125.2960  122.2277   87.0925 C   0  0  0  0  0  0  0  0  0  0  0  0
  124.1429  122.4294   86.3145 C   0  0  0  0  0  0  0  0  0  0  0  0
  124.2298  123.1226   84.9645 C   0  0  0  0  0  0  0  0  0  0  0  0
  124.8344  124.5246   85.0838 C   0  0  0  0  0  0  0  0  0  0  0  0
  125.0076  122.2767   83.9529 C   0  0  0  0  0  0  0  0  0  0  0  0
  117.5752  123.9308   85.4371 H   0  0  0  0  0  0  0  0  0  0  0  0
  117.2048  124.8483   83.9379 H   0  0  0  0  0  0  0  0  0  0  0  0
  117.1166  123.0541   83.9379 H   0  0  0  0  0  0  0  0  0  0  0  0
  119.4709  122.4443   85.4298 H   0  0  0  0  0  0  0  0  0  0  0  0
  120.5926  121.5174   83.0966 H   0  0  0  0  0  0  0  0  0  0  0  0
  121.5297  123.0363   83.4162 H   0  0  0  0  0  0  0  0  0  0  0  0
  121.4787  120.4428   84.9667 H   0  0  0  0  0  0  0  0  0  0  0  0
  122.8690  121.4626   84.4924 H   0  0  0  0  0  0  0  0  0  0  0  0
  121.8698  121.0464   88.4819 H   0  0  0  0  0  0  0  0  0  0  0  0
  124.0178  121.2816   90.9991 H   0  0  0  0  0  0  0  0  0  0  0  0
  122.8975  120.0558   90.3143 H   0  0  0  0  0  0  0  0  0  0  0  0
  124.6682  119.7536   90.3143 H   0  0  0  0  0  0  0  0  0  0  0  0
  126.2711  122.5627   86.7091 H   0  0  0  0  0  0  0  0  0  0  0  0
  123.2007  123.2358   84.5929 H   0  0  0  0  0  0  0  0  0  0  0  0
  124.9471  124.7860   86.1463 H   0  0  0  0  0  0  0  0  0  0  0  0
  125.8199  124.5417   84.5954 H   0  0  0  0  0  0  0  0  0  0  0  0
  124.1704  125.2530   84.5954 H   0  0  0  0  0  0  0  0  0  0  0  0
  125.6578  121.5697   84.4891 H   0  0  0  0  0  0  0  0  0  0  0  0
  124.3009  121.7184   83.3214 H   0  0  0  0  0  0  0  0  0  0  0  0
  125.6231  122.9343   83.3214 H   0  0  0  0  0  0  0  0  0  0  0  0
  1  2  1  0
  2  3  2  0
  2  4  1  0
  4  5  1  0
  5  6  1  0
  6  7  1  0
  7  8  1  0
  8  9  2  0
  9 10  1  0
 10 11  1  0
 10 12  2  0
 12 13  1  0
 12 14  1  0
 14 15  2  0
 15 16  1  0
 16 17  1  0
 16 18  1  0
 15  8  1  0
  1 19  1  0
  1 20  1  0
  1 21  1  0
  4 22  1  0
  5 23  1  0
  5 24  1  0
  6 25  1  0
  6 26  1  0
  9 27  1  0
 11 28  1  0
 11 29  1  0
 11 30  1  0
 14 31  1  0
 16 32  1  0
 17 33  1  0
 17 34  1  0
 17 35  1  0
 18 36  1  0
 18 37  1  0
 18 38  1  0
M  END
>  <loss>  (10) 
0.6484724283218384

>  <score>  (10) 
3.701319456100464

$$$$
ULFYPRPOCVMQPB-UHFFFAOYSA-N
     RDKit          3D

 38 38  0  0  0  0  0  0  0  0999 V2000
  117.6284  124.2382   84.3877 C   0  0  0  0  0  0  0  0  0  0  0  0
  119.0928  124.0844   84.0767 C   0  0  0  0  0  0  0  0  0  0  0  0
  119.7210  124.9313   83.4494 O   0  0  0  0  0  0  0  0  0  0  0  0
  119.6579  122.9305   84.5674 N   0  0  0  0  0  0  0  0  0  0  0  0
  120.7653  122.2862   83.8803 C   0  0  0  0  0  0  0  0  0  0  0  0
  122.0806  122.3160   84.6719 C   0  0  0  0  0  0  0  0  0  0  0  0
  122.0336  121.4596   85.8258 O   0  0  0  0  0  0  0  0  0  0  0  0
  123.1014  121.5495   86.6791 C   0  0  0  0  0  0  0  0  0  0  0  0
  123.0429  121.0511   87.9868 C   0  0  0  0  0  0  0  0  0  0  0  0
  124.1474  121.1414   88.8477 C   0  0  0  0  0  0  0  0  0  0  0  0
  124.0511  120.5765   90.2368 C   0  0  0  0  0  0  0  0  0  0  0  0
  125.3077  121.7677   88.3794 C   0  0  0  0  0  0  0  0  0  0  0  0
  126.7169  121.9156   89.3673 Cl  0  0  0  0  0  0  0  0  0  0  0  0
  125.3562  122.3011   87.0873 C   0  0  0  0  0  0  0  0  0  0  0  0
  124.2532  122.2105   86.2193 C   0  0  0  0  0  0  0  0  0  0  0  0
  124.3233  122.8118   84.8218 C   0  0  0  0  0  0  0  0  0  0  0  0
  125.0228  124.1743   84.8327 C   0  0  0  0  0  0  0  0  0  0  0  0
  125.0012  121.8595   83.8322 C   0  0  0  0  0  0  0  0  0  0  0  0
  117.4848  124.2533   85.4782 H   0  0  0  0  0  0  0  0  0  0  0  0
  117.2589  125.1801   83.9561 H   0  0  0  0  0  0  0  0  0  0  0  0
  117.0713  123.3936   83.9561 H   0  0  0  0  0  0  0  0  0  0  0  0
  119.2905  122.5160   85.4358 H   0  0  0  0  0  0  0  0  0  0  0  0
  120.4954  121.2363   83.6938 H   0  0  0  0  0  0  0  0  0  0  0  0
  120.9366  122.8458   82.9489 H   0  0  0  0  0  0  0  0  0  0  0  0
  122.8980  121.9831   84.0154 H   0  0  0  0  0  0  0  0  0  0  0  0
  122.2447  123.3465   85.0198 H   0  0  0  0  0  0  0  0  0  0  0  0
  122.1152  120.5810   88.3451 H   0  0  0  0  0  0  0  0  0  0  0  0
  124.1887  121.3838   90.9713 H   0  0  0  0  0  0  0  0  0  0  0  0
  123.0617  120.1170   90.3781 H   0  0  0  0  0  0  0  0  0  0  0  0
  124.8325  119.8152   90.3781 H   0  0  0  0  0  0  0  0  0  0  0  0
  126.2740  122.8007   86.7436 H   0  0  0  0  0  0  0  0  0  0  0  0
  123.2879  122.9659   84.4838 H   0  0  0  0  0  0  0  0  0  0  0  0
  125.1869  124.4939   85.8724 H   0  0  0  0  0  0  0  0  0  0  0  0
  125.9909  124.0936   84.3168 H   0  0  0  0  0  0  0  0  0  0  0  0
  124.3929  124.9140   84.3168 H   0  0  0  0  0  0  0  0  0  0  0  0
  125.5521  121.0856   84.3868 H   0  0  0  0  0  0  0  0  0  0  0  0
  124.2375  121.3836   83.1995 H   0  0  0  0  0  0  0  0  0  0  0  0
  125.7009  122.4253   83.1995 H   0  0  0  0  0  0  0  0  0  0  0  0
  1  2  1  0
  2  3  2  0
  2  4  1  0
  4  5  1  0
  5  6  1  0
  6  7  1  0
  7  8  1  0
  8  9  2  0
  9 10  1  0
 10 11  1  0
 10 12  2  0
 12 13  1  0
 12 14  1  0
 14 15  2  0
 15 16  1  0
 16 17  1  0
 16 18  1  0
 15  8  1  0
  1 19  1  0
  1 20  1  0
  1 21  1  0
  4 22  1  0
  5 23  1  0
  5 24  1  0
  6 25  1  0
  6 26  1  0
  9 27  1  0
 11 28  1  0
 11 29  1  0
 11 30  1  0
 14 31  1  0
 16 32  1  0
 17 33  1  0
 17 34  1  0
 17 35  1  0
 18 36  1  0
 18 37  1  0
 18 38  1  0
M  END
>  <loss>  (11) 
0.6411697864532471

>  <score>  (11) 
3.563119649887085

$$$$
ULFYPRPOCVMQPB-UHFFFAOYSA-N
     RDKit          3D

 38 38  0  0  0  0  0  0  0  0999 V2000
  118.2912  125.2022   84.1538 C   0  0  0  0  0  0  0  0  0  0  0  0
  119.1906  124.1390   83.5827 C   0  0  0  0  0  0  0  0  0  0  0  0
  120.0703  124.3990   82.7691 O   0  0  0  0  0  0  0  0  0  0  0  0
  118.9413  122.8711   84.0530 N   0  0  0  0  0  0  0  0  0  0  0  0
  120.0152  121.9253   84.2995 C   0  0  0  0  0  0  0  0  0  0  0  0
  120.9876  122.3648   85.3973 C   0  0  0  0  0  0  0  0  0  0  0  0
  122.1630  121.5579   85.2940 O   0  0  0  0  0  0  0  0  0  0  0  0
  123.0858  121.6316   86.3043 C   0  0  0  0  0  0  0  0  0  0  0  0
  122.8905  121.1006   87.5877 C   0  0  0  0  0  0  0  0  0  0  0  0
  123.8757  121.2102   88.5845 C   0  0  0  0  0  0  0  0  0  0  0  0
  123.6204  120.6270   89.9461 C   0  0  0  0  0  0  0  0  0  0  0  0
  125.0701  121.8679   88.2743 C   0  0  0  0  0  0  0  0  0  0  0  0
  126.3345  122.0469   89.4380 Cl  0  0  0  0  0  0  0  0  0  0  0  0
  125.2724  122.4044   87.0007 C   0  0  0  0  0  0  0  0  0  0  0  0
  124.2892  122.2973   85.9987 C   0  0  0  0  0  0  0  0  0  0  0  0
  124.5422  122.8981   84.6201 C   0  0  0  0  0  0  0  0  0  0  0  0
  125.1494  124.3005   84.7233 C   0  0  0  0  0  0  0  0  0  0  0  0
  125.4213  121.9847   83.7602 C   0  0  0  0  0  0  0  0  0  0  0  0
  118.3263  125.1607   85.2525 H   0  0  0  0  0  0  0  0  0  0  0  0
  118.6308  126.1915   83.8132 H   0  0  0  0  0  0  0  0  0  0  0  0
  117.2593  125.0314   83.8132 H   0  0  0  0  0  0  0  0  0  0  0  0
  117.9687  122.5851   84.2351 H   0  0  0  0  0  0  0  0  0  0  0  0
  119.5695  120.9643   84.5957 H   0  0  0  0  0  0  0  0  0  0  0  0
  120.5963  121.8515   83.3684 H   0  0  0  0  0  0  0  0  0  0  0  0
  121.2492  123.4247   85.2621 H   0  0  0  0  0  0  0  0  0  0  0  0
  120.5260  122.2432   86.3883 H   0  0  0  0  0  0  0  0  0  0  0  0
  121.9457  120.5871   87.8193 H   0  0  0  0  0  0  0  0  0  0  0  0
  123.9349  121.3453   90.7175 H   0  0  0  0  0  0  0  0  0  0  0  0
  122.5469  120.4148   90.0586 H   0  0  0  0  0  0  0  0  0  0  0  0
  124.1924  119.6942   90.0586 H   0  0  0  0  0  0  0  0  0  0  0  0
  126.2177  122.9203   86.7763 H   0  0  0  0  0  0  0  0  0  0  0  0
  123.5654  122.9888   84.1223 H   0  0  0  0  0  0  0  0  0  0  0  0
  125.2671  124.5722   85.7827 H   0  0  0  0  0  0  0  0  0  0  0  0
  126.1329  124.3114   84.2306 H   0  0  0  0  0  0  0  0  0  0  0  0
  124.4845  125.0252   84.2306 H   0  0  0  0  0  0  0  0  0  0  0  0
  126.0354  121.3466   84.4127 H   0  0  0  0  0  0  0  0  0  0  0  0
  124.7828  121.3529   83.1253 H   0  0  0  0  0  0  0  0  0  0  0  0
  126.0770  122.5985   83.1253 H   0  0  0  0  0  0  0  0  0  0  0  0
  1  2  1  0
  2  3  2  0
  2  4  1  0
  4  5  1  0
  5  6  1  0
  6  7  1  0
  7  8  1  0
  8  9  2  0
  9 10  1  0
 10 11  1  0
 10 12  2  0
 12 13  1  0
 12 14  1  0
 14 15  2  0
 15 16  1  0
 16 17  1  0
 16 18  1  0
 15  8  1  0
  1 19  1  0
  1 20  1  0
  1 21  1  0
  4 22  1  0
  5 23  1  0
  5 24  1  0
  6 25  1  0
  6 26  1  0
  9 27  1  0
 11 28  1  0
 11 29  1  0
 11 30  1  0
 14 31  1  0
 16 32  1  0
 17 33  1  0
 17 34  1  0
 17 35  1  0
 18 36  1  0
 18 37  1  0
 18 38  1  0
M  END
>  <loss>  (12) 
0.6003753542900085

>  <score>  (12) 
3.322838306427002

$$$$
ULFYPRPOCVMQPB-UHFFFAOYSA-N
     RDKit          3D

 38 38  0  0  0  0  0  0  0  0999 V2000
  117.6270  123.6036   83.6261 C   0  0  0  0  0  0  0  0  0  0  0  0
  119.1061  123.8297   83.7884 C   0  0  0  0  0  0  0  0  0  0  0  0
  119.8602  123.9249   82.8264 O   0  0  0  0  0  0  0  0  0  0  0  0
  119.5253  123.9206   85.0951 N   0  0  0  0  0  0  0  0  0  0  0  0
  120.8042  123.3829   85.5236 C   0  0  0  0  0  0  0  0  0  0  0  0
  120.8577  121.8529   85.5430 C   0  0  0  0  0  0  0  0  0  0  0  0
  122.2044  121.4555   85.2754 O   0  0  0  0  0  0  0  0  0  0  0  0
  123.1200  121.5574   86.2898 C   0  0  0  0  0  0  0  0  0  0  0  0
  122.9429  121.0056   87.5670 C   0  0  0  0  0  0  0  0  0  0  0  0
  123.9207  121.1436   88.5676 C   0  0  0  0  0  0  0  0  0  0  0  0
  123.6874  120.5326   89.9210 C   0  0  0  0  0  0  0  0  0  0  0  0
  125.0907  121.8477   88.2663 C   0  0  0  0  0  0  0  0  0  0  0  0
  126.3431  122.0665   89.4361 Cl  0  0  0  0  0  0  0  0  0  0  0  0
  125.2787  122.3971   86.9960 C   0  0  0  0  0  0  0  0  0  0  0  0
  124.3032  122.2609   85.9900 C   0  0  0  0  0  0  0  0  0  0  0  0
  124.5430  122.8709   84.6131 C   0  0  0  0  0  0  0  0  0  0  0  0
  125.3527  121.9306   83.7148 C   0  0  0  0  0  0  0  0  0  0  0  0
  125.2180  124.2420   84.7168 C   0  0  0  0  0  0  0  0  0  0  0  0
  117.1561  123.5317   84.6177 H   0  0  0  0  0  0  0  0  0  0  0  0
  117.1862  124.4448   83.0711 H   0  0  0  0  0  0  0  0  0  0  0  0
  117.4576  122.6692   83.0711 H   0  0  0  0  0  0  0  0  0  0  0  0
  118.9171  124.3816   85.7868 H   0  0  0  0  0  0  0  0  0  0  0  0
  121.5815  123.7480   84.8362 H   0  0  0  0  0  0  0  0  0  0  0  0
  120.9630  123.7215   86.5581 H   0  0  0  0  0  0  0  0  0  0  0  0
  120.5478  121.4809   86.5308 H   0  0  0  0  0  0  0  0  0  0  0  0
  120.1782  121.4367   84.7848 H   0  0  0  0  0  0  0  0  0  0  0  0
  122.0187  120.4527   87.7907 H   0  0  0  0  0  0  0  0  0  0  0  0
  123.9636  121.2559   90.7023 H   0  0  0  0  0  0  0  0  0  0  0  0
  122.6249  120.2679   90.0255 H   0  0  0  0  0  0  0  0  0  0  0  0
  124.3029  119.6270   90.0255 H   0  0  0  0  0  0  0  0  0  0  0  0
  126.2063  122.9464   86.7775 H   0  0  0  0  0  0  0  0  0  0  0  0
  123.5573  123.0149   84.1466 H   0  0  0  0  0  0  0  0  0  0  0  0
  125.9434  121.2447   84.3398 H   0  0  0  0  0  0  0  0  0  0  0  0
  124.6675  121.3499   83.0797 H   0  0  0  0  0  0  0  0  0  0  0  0
  126.0287  122.5221   83.0797 H   0  0  0  0  0  0  0  0  0  0  0  0
  125.3486  124.5072   85.7764 H   0  0  0  0  0  0  0  0  0  0  0  0
  126.2009  124.2051   84.2243 H   0  0  0  0  0  0  0  0  0  0  0  0
  124.5893  124.9984   84.2243 H   0  0  0  0  0  0  0  0  0  0  0  0
  1  2  1  0
  2  3  2  0
  2  4  1  0
  4  5  1  0
  5  6  1  0
  6  7  1  0
  7  8  1  0
  8  9  2  0
  9 10  1  0
 10 11  1  0
 10 12  2  0
 12 13  1  0
 12 14  1  0
 14 15  2  0
 15 16  1  0
 16 17  1  0
 16 18  1  0
 15  8  1  0
  1 19  1  0
  1 20  1  0
  1 21  1  0
  4 22  1  0
  5 23  1  0
  5 24  1  0
  6 25  1  0
  6 26  1  0
  9 27  1  0
 11 28  1  0
 11 29  1  0
 11 30  1  0
 14 31  1  0
 16 32  1  0
 17 33  1  0
 17 34  1  0
 17 35  1  0
 18 36  1  0
 18 37  1  0
 18 38  1  0
M  END
>  <loss>  (13) 
0.5856726169586182

>  <score>  (13) 
3.238797664642334

$$$$
ULFYPRPOCVMQPB-UHFFFAOYSA-N
     RDKit          3D

 38 38  0  0  0  0  0  0  0  0999 V2000
  118.2922  125.1845   83.6982 C   0  0  0  0  0  0  0  0  0  0  0  0
  119.1196  123.9289   83.7627 C   0  0  0  0  0  0  0  0  0  0  0  0
  119.6337  123.4363   82.7643 O   0  0  0  0  0  0  0  0  0  0  0  0
  119.2471  123.3966   85.0242 N   0  0  0  0  0  0  0  0  0  0  0  0
  120.1252  122.2713   85.2909 C   0  0  0  0  0  0  0  0  0  0  0  0
  121.5491  122.4576   84.7600 C   0  0  0  0  0  0  0  0  0  0  0  0
  122.3243  121.3296   85.1720 O   0  0  0  0  0  0  0  0  0  0  0  0
  123.1963  121.4938   86.2163 C   0  0  0  0  0  0  0  0  0  0  0  0
  123.0123  120.9348   87.4894 C   0  0  0  0  0  0  0  0  0  0  0  0
  123.9429  121.1416   88.5226 C   0  0  0  0  0  0  0  0  0  0  0  0
  123.7020  120.5236   89.8714 C   0  0  0  0  0  0  0  0  0  0  0  0
  125.0702  121.9260   88.2597 C   0  0  0  0  0  0  0  0  0  0  0  0
  126.2646  122.2304   89.4704 Cl  0  0  0  0  0  0  0  0  0  0  0  0
  125.2602  122.4912   86.9966 C   0  0  0  0  0  0  0  0  0  0  0  0
  124.3316  122.2872   85.9583 C   0  0  0  0  0  0  0  0  0  0  0  0
  124.5688  122.9225   84.5925 C   0  0  0  0  0  0  0  0  0  0  0  0
  125.1225  124.3445   84.7248 C   0  0  0  0  0  0  0  0  0  0  0  0
  125.4859  122.0587   83.7211 C   0  0  0  0  0  0  0  0  0  0  0  0
  118.0662  125.5275   84.7186 H   0  0  0  0  0  0  0  0  0  0  0  0
  118.8528  125.9661   83.1644 H   0  0  0  0  0  0  0  0  0  0  0  0
  117.3529  124.9777   83.1644 H   0  0  0  0  0  0  0  0  0  0  0  0
  118.7063  123.8062   85.7991 H   0  0  0  0  0  0  0  0  0  0  0  0
  120.1778  122.1232   86.3796 H   0  0  0  0  0  0  0  0  0  0  0  0
  119.6998  121.4025   84.7672 H   0  0  0  0  0  0  0  0  0  0  0  0
  121.5332  122.5188   83.6618 H   0  0  0  0  0  0  0  0  0  0  0  0
  121.9860  123.3868   85.1548 H   0  0  0  0  0  0  0  0  0  0  0  0
  122.1203  120.3211   87.6836 H   0  0  0  0  0  0  0  0  0  0  0  0
  123.9812  121.2400   90.6581 H   0  0  0  0  0  0  0  0  0  0  0  0
  122.6374  120.2656   89.9717 H   0  0  0  0  0  0  0  0  0  0  0  0
  124.3110  119.6131   89.9717 H   0  0  0  0  0  0  0  0  0  0  0  0
  126.1521  123.1072   86.8096 H   0  0  0  0  0  0  0  0  0  0  0  0
  123.5919  122.9858   84.0908 H   0  0  0  0  0  0  0  0  0  0  0  0
  125.2225  124.6014   85.7897 H   0  0  0  0  0  0  0  0  0  0  0  0
  126.1082  124.4007   84.2399 H   0  0  0  0  0  0  0  0  0  0  0  0
  124.4344  125.0525   84.2399 H   0  0  0  0  0  0  0  0  0  0  0  0
  126.1349  121.4474   84.3654 H   0  0  0  0  0  0  0  0  0  0  0  0
  124.8749  121.4003   83.0860 H   0  0  0  0  0  0  0  0  0  0  0  0
  126.1065  122.7080   83.0860 H   0  0  0  0  0  0  0  0  0  0  0  0
  1  2  1  0
  2  3  2  0
  2  4  1  0
  4  5  1  0
  5  6  1  0
  6  7  1  0
  7  8  1  0
  8  9  2  0
  9 10  1  0
 10 11  1  0
 10 12  2  0
 12 13  1  0
 12 14  1  0
 14 15  2  0
 15 16  1  0
 16 17  1  0
 16 18  1  0
 15  8  1  0
  1 19  1  0
  1 20  1  0
  1 21  1  0
  4 22  1  0
  5 23  1  0
  5 24  1  0
  6 25  1  0
  6 26  1  0
  9 27  1  0
 11 28  1  0
 11 29  1  0
 11 30  1  0
 14 31  1  0
 16 32  1  0
 17 33  1  0
 17 34  1  0
 17 35  1  0
 18 36  1  0
 18 37  1  0
 18 38  1  0
M  END
>  <loss>  (14) 
0.5838287472724915

>  <score>  (14) 
3.200712203979492

$$$$
ULFYPRPOCVMQPB-UHFFFAOYSA-N
     RDKit          3D

 38 38  0  0  0  0  0  0  0  0999 V2000
  118.2227  125.1269   83.9922 C   0  0  0  0  0  0  0  0  0  0  0  0
  119.0440  123.8714   84.1132 C   0  0  0  0  0  0  0  0  0  0  0  0
  119.3887  123.2221   83.1319 O   0  0  0  0  0  0  0  0  0  0  0  0
  119.3703  123.5281   85.4043 N   0  0  0  0  0  0  0  0  0  0  0  0
  120.0981  122.3088   85.7074 C   0  0  0  0  0  0  0  0  0  0  0  0
  121.5487  122.3156   85.2179 C   0  0  0  0  0  0  0  0  0  0  0  0
  122.1996  121.1604   85.7520 O   0  0  0  0  0  0  0  0  0  0  0  0
  123.2186  121.3516   86.6480 C   0  0  0  0  0  0  0  0  0  0  0  0
  123.2377  120.8140   87.9433 C   0  0  0  0  0  0  0  0  0  0  0  0
  124.3125  121.0480   88.8187 C   0  0  0  0  0  0  0  0  0  0  0  0
  124.2875  120.4523   90.1985 C   0  0  0  0  0  0  0  0  0  0  0  0
  125.3771  121.8380   88.3739 C   0  0  0  0  0  0  0  0  0  0  0  0
  126.7384  122.1752   89.3828 Cl  0  0  0  0  0  0  0  0  0  0  0  0
  125.3654  122.3819   87.0874 C   0  0  0  0  0  0  0  0  0  0  0  0
  124.2917  122.1506   86.2067 C   0  0  0  0  0  0  0  0  0  0  0  0
  124.3102  122.7633   84.8104 C   0  0  0  0  0  0  0  0  0  0  0  0
  124.9742  124.1437   84.8132 C   0  0  0  0  0  0  0  0  0  0  0  0
  124.9861  121.8348   83.7966 C   0  0  0  0  0  0  0  0  0  0  0  0
  117.9770  125.5026   84.9964 H   0  0  0  0  0  0  0  0  0  0  0  0
  118.7971  125.8895   83.4458 H   0  0  0  0  0  0  0  0  0  0  0  0
  117.2939  124.9062   83.4458 H   0  0  0  0  0  0  0  0  0  0  0  0
  119.0915  124.1514   86.1754 H   0  0  0  0  0  0  0  0  0  0  0  0
  120.1011  122.1691   86.7985 H   0  0  0  0  0  0  0  0  0  0  0  0
  119.5861  121.4910   85.1790 H   0  0  0  0  0  0  0  0  0  0  0  0
  121.5721  122.2827   84.1187 H   0  0  0  0  0  0  0  0  0  0  0  0
  122.0603  123.2309   85.5504 H   0  0  0  0  0  0  0  0  0  0  0  0
  122.3931  120.1957   88.2815 H   0  0  0  0  0  0  0  0  0  0  0  0
  124.3213  121.2582   90.9464 H   0  0  0  0  0  0  0  0  0  0  0  0
  123.3642  119.8690   90.3294 H   0  0  0  0  0  0  0  0  0  0  0  0
  125.1589  119.7938   90.3294 H   0  0  0  0  0  0  0  0  0  0  0  0
  126.2110  123.0027   86.7563 H   0  0  0  0  0  0  0  0  0  0  0  0
  123.2629  122.8930   84.4998 H   0  0  0  0  0  0  0  0  0  0  0  0
  125.1323  124.4723   85.8510 H   0  0  0  0  0  0  0  0  0  0  0  0
  125.9430  124.0856   84.2954 H   0  0  0  0  0  0  0  0  0  0  0  0
  124.3242  124.8643   84.2954 H   0  0  0  0  0  0  0  0  0  0  0  0
  125.5518  121.0577   84.3316 H   0  0  0  0  0  0  0  0  0  0  0  0
  124.2198  121.3614   83.1652 H   0  0  0  0  0  0  0  0  0  0  0  0
  125.6721  122.4185   83.1652 H   0  0  0  0  0  0  0  0  0  0  0  0
  1  2  1  0
  2  3  2  0
  2  4  1  0
  4  5  1  0
  5  6  1  0
  6  7  1  0
  7  8  1  0
  8  9  2  0
  9 10  1  0
 10 11  1  0
 10 12  2  0
 12 13  1  0
 12 14  1  0
 14 15  2  0
 15 16  1  0
 16 17  1  0
 16 18  1  0
 15  8  1  0
  1 19  1  0
  1 20  1  0
  1 21  1  0
  4 22  1  0
  5 23  1  0
  5 24  1  0
  6 25  1  0
  6 26  1  0
  9 27  1  0
 11 28  1  0
 11 29  1  0
 11 30  1  0
 14 31  1  0
 16 32  1  0
 17 33  1  0
 17 34  1  0
 17 35  1  0
 18 36  1  0
 18 37  1  0
 18 38  1  0
M  END
>  <loss>  (15) 
0.6366573572158813

>  <score>  (15) 
3.3403737545013428

$$$$
ULFYPRPOCVMQPB-UHFFFAOYSA-N
     RDKit          3D

 38 38  0  0  0  0  0  0  0  0999 V2000
  117.5654  124.0649   84.4929 C   0  0  0  0  0  0  0  0  0  0  0  0
  118.9922  123.9191   84.0379 C   0  0  0  0  0  0  0  0  0  0  0  0
  119.5187  124.7170   83.2702 O   0  0  0  0  0  0  0  0  0  0  0  0
  119.6367  122.8147   84.5441 N   0  0  0  0  0  0  0  0  0  0  0  0
  120.8182  122.2674   83.9047 C   0  0  0  0  0  0  0  0  0  0  0  0
  122.0863  122.4080   84.7479 C   0  0  0  0  0  0  0  0  0  0  0  0
  121.9649  121.5346   85.8813 O   0  0  0  0  0  0  0  0  0  0  0  0
  123.0656  121.6534   86.6898 C   0  0  0  0  0  0  0  0  0  0  0  0
  123.0943  120.9173   87.8796 C   0  0  0  0  0  0  0  0  0  0  0  0
  124.2040  120.9806   88.7331 C   0  0  0  0  0  0  0  0  0  0  0  0
  124.2055  120.1873   90.0084 C   0  0  0  0  0  0  0  0  0  0  0  0
  125.2854  121.7895   88.3584 C   0  0  0  0  0  0  0  0  0  0  0  0
  126.6920  121.9313   89.3529 Cl  0  0  0  0  0  0  0  0  0  0  0  0
  125.2608  122.5068   87.1555 C   0  0  0  0  0  0  0  0  0  0  0  0
  124.1538  122.4424   86.2921 C   0  0  0  0  0  0  0  0  0  0  0  0
  124.1425  123.2132   84.9813 C   0  0  0  0  0  0  0  0  0  0  0  0
  125.1979  122.6864   84.0043 C   0  0  0  0  0  0  0  0  0  0  0  0
  124.3203  124.7155   85.2171 C   0  0  0  0  0  0  0  0  0  0  0  0
  117.5297  124.0686   85.5923 H   0  0  0  0  0  0  0  0  0  0  0  0
  117.1531  125.0099   84.1095 H   0  0  0  0  0  0  0  0  0  0  0  0
  116.9704  123.2229   84.1095 H   0  0  0  0  0  0  0  0  0  0  0  0
  119.2721  122.3660   85.3965 H   0  0  0  0  0  0  0  0  0  0  0  0
  120.6457  121.1986   83.7103 H   0  0  0  0  0  0  0  0  0  0  0  0
  120.9796  122.8383   82.9784 H   0  0  0  0  0  0  0  0  0  0  0  0
  122.9651  122.1242   84.1504 H   0  0  0  0  0  0  0  0  0  0  0  0
  122.2110  123.4494   85.0796 H   0  0  0  0  0  0  0  0  0  0  0  0
  122.2370  120.2824   88.1476 H   0  0  0  0  0  0  0  0  0  0  0  0
  124.2042  120.8743   90.8675 H   0  0  0  0  0  0  0  0  0  0  0  0
  123.3086  119.5517   90.0459 H   0  0  0  0  0  0  0  0  0  0  0  0
  125.1048  119.5550   90.0459 H   0  0  0  0  0  0  0  0  0  0  0  0
  126.1236  123.1318   86.8817 H   0  0  0  0  0  0  0  0  0  0  0  0
  123.1555  123.0548   84.5222 H   0  0  0  0  0  0  0  0  0  0  0  0
  126.0425  122.2648   84.5691 H   0  0  0  0  0  0  0  0  0  0  0  0
  124.7535  121.9044   83.3710 H   0  0  0  0  0  0  0  0  0  0  0  0
  125.5557  123.5116   83.3710 H   0  0  0  0  0  0  0  0  0  0  0  0
  124.3441  124.9167   86.2982 H   0  0  0  0  0  0  0  0  0  0  0  0
  125.2641  125.0490   84.7612 H   0  0  0  0  0  0  0  0  0  0  0  0
  123.4803  125.2601   84.7612 H   0  0  0  0  0  0  0  0  0  0  0  0
  1  2  1  0
  2  3  2  0
  2  4  1  0
  4  5  1  0
  5  6  1  0
  6  7  1  0
  7  8  1  0
  8  9  2  0
  9 10  1  0
 10 11  1  0
 10 12  2  0
 12 13  1  0
 12 14  1  0
 14 15  2  0
 15 16  1  0
 16 17  1  0
 16 18  1  0
 15  8  1  0
  1 19  1  0
  1 20  1  0
  1 21  1  0
  4 22  1  0
  5 23  1  0
  5 24  1  0
  6 25  1  0
  6 26  1  0
  9 27  1  0
 11 28  1  0
 11 29  1  0
 11 30  1  0
 14 31  1  0
 16 32  1  0
 17 33  1  0
 17 34  1  0
 17 35  1  0
 18 36  1  0
 18 37  1  0
 18 38  1  0
M  END
>  <loss>  (16) 
0.6271071434020996

>  <score>  (16) 
3.2555294036865234

$$$$
ULFYPRPOCVMQPB-UHFFFAOYSA-N
     RDKit          3D

 38 38  0  0  0  0  0  0  0  0999 V2000
  118.0355  124.9239   84.0796 C   0  0  0  0  0  0  0  0  0  0  0  0
  118.8444  123.6615   84.2105 C   0  0  0  0  0  0  0  0  0  0  0  0
  118.3659  122.6240   84.6556 O   0  0  0  0  0  0  0  0  0  0  0  0
  120.1482  123.7777   83.7887 N   0  0  0  0  0  0  0  0  0  0  0  0
  121.0687  122.6560   83.8421 C   0  0  0  0  0  0  0  0  0  0  0  0
  121.1514  121.9874   85.2169 C   0  0  0  0  0  0  0  0  0  0  0  0
  122.3490  121.2082   85.2569 O   0  0  0  0  0  0  0  0  0  0  0  0
  123.2201  121.4182   86.2936 C   0  0  0  0  0  0  0  0  0  0  0  0
  123.0620  120.8727   87.5760 C   0  0  0  0  0  0  0  0  0  0  0  0
  123.9917  121.1245   88.6000 C   0  0  0  0  0  0  0  0  0  0  0  0
  123.7813  120.5158   89.9581 C   0  0  0  0  0  0  0  0  0  0  0  0
  125.0939  121.9373   88.3170 C   0  0  0  0  0  0  0  0  0  0  0  0
  126.2839  122.2999   89.5159 Cl  0  0  0  0  0  0  0  0  0  0  0  0
  125.2629  122.4816   87.0418 C   0  0  0  0  0  0  0  0  0  0  0  0
  124.3355  122.2317   86.0125 C   0  0  0  0  0  0  0  0  0  0  0  0
  124.5531  122.8397   84.6311 C   0  0  0  0  0  0  0  0  0  0  0  0
  125.4761  121.9692   83.7726 C   0  0  0  0  0  0  0  0  0  0  0  0
  125.0872  124.2722   84.7265 C   0  0  0  0  0  0  0  0  0  0  0  0
  117.7898  125.3074   85.0809 H   0  0  0  0  0  0  0  0  0  0  0  0
  118.6190  125.6780   83.5312 H   0  0  0  0  0  0  0  0  0  0  0  0
  117.1065  124.7089   83.5312 H   0  0  0  0  0  0  0  0  0  0  0  0
  120.4799  124.6829   83.4259 H   0  0  0  0  0  0  0  0  0  0  0  0
  120.7406  121.9034   83.1100 H   0  0  0  0  0  0  0  0  0  0  0  0
  122.0699  123.0531   83.6190 H   0  0  0  0  0  0  0  0  0  0  0  0
  121.1788  122.7550   86.0044 H   0  0  0  0  0  0  0  0  0  0  0  0
  120.2727  121.3472   85.3844 H   0  0  0  0  0  0  0  0  0  0  0  0
  122.1913  120.2337   87.7852 H   0  0  0  0  0  0  0  0  0  0  0  0
  124.0361  121.2530   90.7338 H   0  0  0  0  0  0  0  0  0  0  0  0
  122.7281  120.2179   90.0672 H   0  0  0  0  0  0  0  0  0  0  0  0
  124.4258  119.6311   90.0672 H   0  0  0  0  0  0  0  0  0  0  0  0
  126.1371  123.1174   86.8380 H   0  0  0  0  0  0  0  0  0  0  0  0
  123.5715  122.8782   84.1360 H   0  0  0  0  0  0  0  0  0  0  0  0
  126.1198  121.3620   84.4260 H   0  0  0  0  0  0  0  0  0  0  0  0
  124.8693  121.3068   83.1376 H   0  0  0  0  0  0  0  0  0  0  0  0
  126.1018  122.6136   83.1376 H   0  0  0  0  0  0  0  0  0  0  0  0
  125.1925  124.5545   85.7844 H   0  0  0  0  0  0  0  0  0  0  0  0
  126.0679  124.3315   84.2317 H   0  0  0  0  0  0  0  0  0  0  0  0
  124.3848  124.9591   84.2317 H   0  0  0  0  0  0  0  0  0  0  0  0
  1  2  1  0
  2  3  2  0
  2  4  1  0
  4  5  1  0
  5  6  1  0
  6  7  1  0
  7  8  1  0
  8  9  2  0
  9 10  1  0
 10 11  1  0
 10 12  2  0
 12 13  1  0
 12 14  1  0
 14 15  2  0
 15 16  1  0
 16 17  1  0
 16 18  1  0
 15  8  1  0
  1 19  1  0
  1 20  1  0
  1 21  1  0
  4 22  1  0
  5 23  1  0
  5 24  1  0
  6 25  1  0
  6 26  1  0
  9 27  1  0
 11 28  1  0
 11 29  1  0
 11 30  1  0
 14 31  1  0
 16 32  1  0
 17 33  1  0
 17 34  1  0
 17 35  1  0
 18 36  1  0
 18 37  1  0
 18 38  1  0
M  END
>  <loss>  (17) 
0.5948373079299927

>  <score>  (17) 
3.0540716648101807

$$$$
ULFYPRPOCVMQPB-UHFFFAOYSA-N
     RDKit          3D

 38 38  0  0  0  0  0  0  0  0999 V2000
  117.5478  124.0026   84.5400 C   0  0  0  0  0  0  0  0  0  0  0  0
  118.9671  123.9376   84.0440 C   0  0  0  0  0  0  0  0  0  0  0  0
  119.4827  124.8552   83.4136 O   0  0  0  0  0  0  0  0  0  0  0  0
  119.6291  122.7774   84.3719 N   0  0  0  0  0  0  0  0  0  0  0  0
  120.8402  122.3811   83.6721 C   0  0  0  0  0  0  0  0  0  0  0  0
  122.0984  122.4194   84.5513 C   0  0  0  0  0  0  0  0  0  0  0  0
  121.9896  121.5414   85.6847 O   0  0  0  0  0  0  0  0  0  0  0  0
  123.0217  121.5975   86.5837 C   0  0  0  0  0  0  0  0  0  0  0  0
  122.9268  121.0090   87.8512 C   0  0  0  0  0  0  0  0  0  0  0  0
  123.9953  121.0657   88.7592 C   0  0  0  0  0  0  0  0  0  0  0  0
  123.8614  120.4044   90.1019 C   0  0  0  0  0  0  0  0  0  0  0  0
  125.1557  121.7500   88.3807 C   0  0  0  0  0  0  0  0  0  0  0  0
  126.5222  121.8626   89.4312 Cl  0  0  0  0  0  0  0  0  0  0  0  0
  125.2390  122.3721   87.1307 C   0  0  0  0  0  0  0  0  0  0  0  0
  124.1724  122.3155   86.2157 C   0  0  0  0  0  0  0  0  0  0  0  0
  124.2794  123.0131   84.8661 C   0  0  0  0  0  0  0  0  0  0  0  0
  124.9082  124.4031   85.0024 C   0  0  0  0  0  0  0  0  0  0  0  0
  125.0513  122.1632   83.8524 C   0  0  0  0  0  0  0  0  0  0  0  0
  117.5434  124.0028   85.6400 H   0  0  0  0  0  0  0  0  0  0  0  0
  117.0723  124.9235   84.1713 H   0  0  0  0  0  0  0  0  0  0  0  0
  116.9902  123.1291   84.1713 H   0  0  0  0  0  0  0  0  0  0  0  0
  119.2607  122.1795   85.1254 H   0  0  0  0  0  0  0  0  0  0  0  0
  120.7069  121.3545   83.3002 H   0  0  0  0  0  0  0  0  0  0  0  0
  120.9937  123.1045   82.8577 H   0  0  0  0  0  0  0  0  0  0  0  0
  122.9642  122.1126   83.9461 H   0  0  0  0  0  0  0  0  0  0  0  0
  122.2196  123.4461   84.9270 H   0  0  0  0  0  0  0  0  0  0  0  0
  121.9989  120.4936   88.1398 H   0  0  0  0  0  0  0  0  0  0  0  0
  124.0126  121.1513   90.8952 H   0  0  0  0  0  0  0  0  0  0  0  0
  122.8566  119.9671   90.1966 H   0  0  0  0  0  0  0  0  0  0  0  0
  124.6171  119.6107   90.1966 H   0  0  0  0  0  0  0  0  0  0  0  0
  126.1557  122.9156   86.8583 H   0  0  0  0  0  0  0  0  0  0  0  0
  123.2551  123.1411   84.4861 H   0  0  0  0  0  0  0  0  0  0  0  0
  125.0207  124.6518   86.0680 H   0  0  0  0  0  0  0  0  0  0  0  0
  125.8960  124.4077   84.5185 H   0  0  0  0  0  0  0  0  0  0  0  0
  124.2594  125.1481   84.5185 H   0  0  0  0  0  0  0  0  0  0  0  0
  125.6976  121.4516   84.3871 H   0  0  0  0  0  0  0  0  0  0  0  0
  124.3405  121.6100   83.2210 H   0  0  0  0  0  0  0  0  0  0  0  0
  125.6702  122.8177   83.2210 H   0  0  0  0  0  0  0  0  0  0  0  0
  1  2  1  0
  2  3  2  0
  2  4  1  0
  4  5  1  0
  5  6  1  0
  6  7  1  0
  7  8  1  0
  8  9  2  0
  9 10  1  0
 10 11  1  0
 10 12  2  0
 12 13  1  0
 12 14  1  0
 14 15  2  0
 15 16  1  0
 16 17  1  0
 16 18  1  0
 15  8  1  0
  1 19  1  0
  1 20  1  0
  1 21  1  0
  4 22  1  0
  5 23  1  0
  5 24  1  0
  6 25  1  0
  6 26  1  0
  9 27  1  0
 11 28  1  0
 11 29  1  0
 11 30  1  0
 14 31  1  0
 16 32  1  0
 17 33  1  0
 17 34  1  0
 17 35  1  0
 18 36  1  0
 18 37  1  0
 18 38  1  0
M  END
>  <loss>  (18) 
0.6733947992324829

>  <score>  (18) 
3.4277188777923584

$$$$
ULFYPRPOCVMQPB-UHFFFAOYSA-N
     RDKit          3D

 38 38  0  0  0  0  0  0  0  0999 V2000
  117.4848  123.9378   84.5446 C   0  0  0  0  0  0  0  0  0  0  0  0
  118.8893  123.8839   84.0075 C   0  0  0  0  0  0  0  0  0  0  0  0
  119.3388  124.7489   83.2637 O   0  0  0  0  0  0  0  0  0  0  0  0
  119.6065  122.7819   84.4104 N   0  0  0  0  0  0  0  0  0  0  0  0
  120.8197  122.3757   83.7267 C   0  0  0  0  0  0  0  0  0  0  0  0
  122.0743  122.4916   84.5934 C   0  0  0  0  0  0  0  0  0  0  0  0
  121.9732  121.5263   85.6519 O   0  0  0  0  0  0  0  0  0  0  0  0
  123.0243  121.6657   86.5209 C   0  0  0  0  0  0  0  0  0  0  0  0
  123.0168  120.9042   87.6948 C   0  0  0  0  0  0  0  0  0  0  0  0
  124.0765  120.9875   88.6081 C   0  0  0  0  0  0  0  0  0  0  0  0
  124.0394  120.1658   89.8648 C   0  0  0  0  0  0  0  0  0  0  0  0
  125.1458  121.8428   88.3093 C   0  0  0  0  0  0  0  0  0  0  0  0
  126.4913  122.0119   89.3810 Cl  0  0  0  0  0  0  0  0  0  0  0  0
  125.1588  122.5861   87.1221 C   0  0  0  0  0  0  0  0  0  0  0  0
  124.1024  122.5019   86.1990 C   0  0  0  0  0  0  0  0  0  0  0  0
  124.1323  123.3016   84.9060 C   0  0  0  0  0  0  0  0  0  0  0  0
  125.2493  122.8273   83.9714 C   0  0  0  0  0  0  0  0  0  0  0  0
  124.2539  124.8026   85.1821 C   0  0  0  0  0  0  0  0  0  0  0  0
  117.5125  123.9367   85.6443 H   0  0  0  0  0  0  0  0  0  0  0  0
  116.9920  124.8555   84.1911 H   0  0  0  0  0  0  0  0  0  0  0  0
  116.9231  123.0605   84.1911 H   0  0  0  0  0  0  0  0  0  0  0  0
  119.2748  122.2325   85.2160 H   0  0  0  0  0  0  0  0  0  0  0  0
  120.7085  121.3273   83.4128 H   0  0  0  0  0  0  0  0  0  0  0  0
  120.9526  123.0544   82.8712 H   0  0  0  0  0  0  0  0  0  0  0  0
  122.9680  122.2870   83.9857 H   0  0  0  0  0  0  0  0  0  0  0  0
  122.1592  123.5066   85.0088 H   0  0  0  0  0  0  0  0  0  0  0  0
  122.1704  120.2331   87.9029 H   0  0  0  0  0  0  0  0  0  0  0  0
  124.0695  120.8321   90.7395 H   0  0  0  0  0  0  0  0  0  0  0  0
  123.1136  119.5723   89.8876 H   0  0  0  0  0  0  0  0  0  0  0  0
  124.9080  119.4913   89.8876 H   0  0  0  0  0  0  0  0  0  0  0  0
  126.0113  123.2476   86.9084 H   0  0  0  0  0  0  0  0  0  0  0  0
  123.1740  123.1257   84.3954 H   0  0  0  0  0  0  0  0  0  0  0  0
  126.0992  122.4665   84.5694 H   0  0  0  0  0  0  0  0  0  0  0  0
  124.8744  122.0107   83.3369 H   0  0  0  0  0  0  0  0  0  0  0  0
  125.5765  123.6641   83.3369 H   0  0  0  0  0  0  0  0  0  0  0  0
  124.2680  124.9757   86.2683 H   0  0  0  0  0  0  0  0  0  0  0  0
  125.1858  125.1828   84.7382 H   0  0  0  0  0  0  0  0  0  0  0  0
  123.3954  125.3279   84.7382 H   0  0  0  0  0  0  0  0  0  0  0  0
  1  2  1  0
  2  3  2  0
  2  4  1  0
  4  5  1  0
  5  6  1  0
  6  7  1  0
  7  8  1  0
  8  9  2  0
  9 10  1  0
 10 11  1  0
 10 12  2  0
 12 13  1  0
 12 14  1  0
 14 15  2  0
 15 16  1  0
 16 17  1  0
 16 18  1  0
 15  8  1  0
  1 19  1  0
  1 20  1  0
  1 21  1  0
  4 22  1  0
  5 23  1  0
  5 24  1  0
  6 25  1  0
  6 26  1  0
  9 27  1  0
 11 28  1  0
 11 29  1  0
 11 30  1  0
 14 31  1  0
 16 32  1  0
 17 33  1  0
 17 34  1  0
 17 35  1  0
 18 36  1  0
 18 37  1  0
 18 38  1  0
M  END
>  <loss>  (19) 
0.6562494039535522

>  <score>  (19) 
3.1897358894348145

$$$$
ULFYPRPOCVMQPB-UHFFFAOYSA-N
     RDKit          3D

 38 38  0  0  0  0  0  0  0  0999 V2000
  117.6326  123.7057   84.4002 C   0  0  0  0  0  0  0  0  0  0  0  0
  119.0481  123.7866   83.8983 C   0  0  0  0  0  0  0  0  0  0  0  0
  119.4146  124.6381   83.0962 O   0  0  0  0  0  0  0  0  0  0  0  0
  119.8718  122.8105   84.4100 N   0  0  0  0  0  0  0  0  0  0  0  0
  120.9909  122.3002   83.6355 C   0  0  0  0  0  0  0  0  0  0  0  0
  122.0731  121.7034   84.5325 C   0  0  0  0  0  0  0  0  0  0  0  0
  121.7849  122.0670   85.8946 O   0  0  0  0  0  0  0  0  0  0  0  0
  122.9087  121.9378   86.6695 C   0  0  0  0  0  0  0  0  0  0  0  0
  122.8166  121.2007   87.8559 C   0  0  0  0  0  0  0  0  0  0  0  0
  123.9271  121.0580   88.6993 C   0  0  0  0  0  0  0  0  0  0  0  0
  123.8021  120.2542   89.9619 C   0  0  0  0  0  0  0  0  0  0  0  0
  125.1251  121.6841   88.3313 C   0  0  0  0  0  0  0  0  0  0  0  0
  126.5447  121.5609   89.3094 Cl  0  0  0  0  0  0  0  0  0  0  0  0
  125.2057  122.4411   87.1556 C   0  0  0  0  0  0  0  0  0  0  0  0
  124.0943  122.5925   86.3084 C   0  0  0  0  0  0  0  0  0  0  0  0
  124.1902  123.4347   85.0466 C   0  0  0  0  0  0  0  0  0  0  0  0
  124.6210  124.8717   85.3543 C   0  0  0  0  0  0  0  0  0  0  0  0
  125.1249  122.7927   84.0180 C   0  0  0  0  0  0  0  0  0  0  0  0
  117.6330  123.7057   85.5002 H   0  0  0  0  0  0  0  0  0  0  0  0
  117.0635  124.5728   84.0337 H   0  0  0  0  0  0  0  0  0  0  0  0
  117.1660  122.7794   84.0337 H   0  0  0  0  0  0  0  0  0  0  0  0
  119.6932  122.4370   85.3531 H   0  0  0  0  0  0  0  0  0  0  0  0
  120.6249  121.5204   82.9515 H   0  0  0  0  0  0  0  0  0  0  0  0
  121.4323  123.1388   83.0772 H   0  0  0  0  0  0  0  0  0  0  0  0
  122.0759  120.6079   84.4330 H   0  0  0  0  0  0  0  0  0  0  0  0
  123.0613  122.0877   84.2396 H   0  0  0  0  0  0  0  0  0  0  0  0
  121.8618  120.7280   88.1295 H   0  0  0  0  0  0  0  0  0  0  0  0
  123.9055  120.9194   90.8318 H   0  0  0  0  0  0  0  0  0  0  0  0
  122.8171  119.7652   89.9892 H   0  0  0  0  0  0  0  0  0  0  0  0
  124.5921  119.4892   89.9892 H   0  0  0  0  0  0  0  0  0  0  0  0
  126.1566  122.9262   86.8902 H   0  0  0  0  0  0  0  0  0  0  0  0
  123.1817  123.4773   84.6095 H   0  0  0  0  0  0  0  0  0  0  0  0
  124.6644  125.0162   86.4439 H   0  0  0  0  0  0  0  0  0  0  0  0
  125.6144  125.0576   84.9200 H   0  0  0  0  0  0  0  0  0  0  0  0
  123.8938  125.5735   84.9200 H   0  0  0  0  0  0  0  0  0  0  0  0
  125.9231  122.2444   84.5398 H   0  0  0  0  0  0  0  0  0  0  0  0
  124.5531  122.0958   83.3876 H   0  0  0  0  0  0  0  0  0  0  0  0
  125.5701  123.5765   83.3876 H   0  0  0  0  0  0  0  0  0  0  0  0
  1  2  1  0
  2  3  2  0
  2  4  1  0
  4  5  1  0
  5  6  1  0
  6  7  1  0
  7  8  1  0
  8  9  2  0
  9 10  1  0
 10 11  1  0
 10 12  2  0
 12 13  1  0
 12 14  1  0
 14 15  2  0
 15 16  1  0
 16 17  1  0
 16 18  1  0
 15  8  1  0
  1 19  1  0
  1 20  1  0
  1 21  1  0
  4 22  1  0
  5 23  1  0
  5 24  1  0
  6 25  1  0
  6 26  1  0
  9 27  1  0
 11 28  1  0
 11 29  1  0
 11 30  1  0
 14 31  1  0
 16 32  1  0
 17 33  1  0
 17 34  1  0
 17 35  1  0
 18 36  1  0
 18 37  1  0
 18 38  1  0
M  END
>  <loss>  (20) 
0.679338812828064

>  <score>  (20) 
3.197397470474243

$$$$
ULFYPRPOCVMQPB-UHFFFAOYSA-N
     RDKit          3D

 38 38  0  0  0  0  0  0  0  0999 V2000
  118.3876  124.8923   83.3852 C   0  0  0  0  0  0  0  0  0  0  0  0
  118.7087  124.0007   84.5545 C   0  0  0  0  0  0  0  0  0  0  0  0
  118.5085  124.3481   85.7131 O   0  0  0  0  0  0  0  0  0  0  0  0
  119.2363  122.7790   84.2072 N   0  0  0  0  0  0  0  0  0  0  0  0
  119.9943  121.9803   85.1538 C   0  0  0  0  0  0  0  0  0  0  0  0
  121.4565  122.4110   85.2965 C   0  0  0  0  0  0  0  0  0  0  0  0
  122.2201  121.2618   85.6701 O   0  0  0  0  0  0  0  0  0  0  0  0
  123.2200  121.4247   86.5929 C   0  0  0  0  0  0  0  0  0  0  0  0
  123.3179  120.6903   87.7838 C   0  0  0  0  0  0  0  0  0  0  0  0
  124.3694  120.9029   88.6923 C   0  0  0  0  0  0  0  0  0  0  0  0
  124.4338  120.0897   89.9547 C   0  0  0  0  0  0  0  0  0  0  0  0
  125.3318  121.8701   88.3863 C   0  0  0  0  0  0  0  0  0  0  0  0
  126.6563  122.1975   89.4463 Cl  0  0  0  0  0  0  0  0  0  0  0  0
  125.2458  122.6036   87.2007 C   0  0  0  0  0  0  0  0  0  0  0  0
  124.1955  122.3940   86.2870 C   0  0  0  0  0  0  0  0  0  0  0  0
  124.1346  123.2106   85.0006 C   0  0  0  0  0  0  0  0  0  0  0  0
  125.1428  122.7039   83.9645 C   0  0  0  0  0  0  0  0  0  0  0  0
  124.3373  124.7041   85.2742 C   0  0  0  0  0  0  0  0  0  0  0  0
  118.0364  125.8675   83.7533 H   0  0  0  0  0  0  0  0  0  0  0  0
  119.2909  125.0348   82.7738 H   0  0  0  0  0  0  0  0  0  0  0  0
  117.6009  124.4261   82.7738 H   0  0  0  0  0  0  0  0  0  0  0  0
  119.0901  122.4218   83.2523 H   0  0  0  0  0  0  0  0  0  0  0  0
  119.5118  122.0600   86.1391 H   0  0  0  0  0  0  0  0  0  0  0  0
  120.0007  120.9497   84.7693 H   0  0  0  0  0  0  0  0  0  0  0  0
  121.8240  122.8084   84.3389 H   0  0  0  0  0  0  0  0  0  0  0  0
  121.5508  123.1975   86.0597 H   0  0  0  0  0  0  0  0  0  0  0  0
  122.5551  119.9312   88.0119 H   0  0  0  0  0  0  0  0  0  0  0  0
  124.3808  120.7596   90.8256 H   0  0  0  0  0  0  0  0  0  0  0  0
  123.5885  119.3862   89.9812 H   0  0  0  0  0  0  0  0  0  0  0  0
  125.3792  119.5280   89.9812 H   0  0  0  0  0  0  0  0  0  0  0  0
  126.0132  123.3593   86.9768 H   0  0  0  0  0  0  0  0  0  0  0  0
  123.1265  123.0786   84.5807 H   0  0  0  0  0  0  0  0  0  0  0  0
  126.0109  122.2676   84.4805 H   0  0  0  0  0  0  0  0  0  0  0  0
  124.6675  121.9376   83.3346 H   0  0  0  0  0  0  0  0  0  0  0  0
  125.4741  123.5426   83.3346 H   0  0  0  0  0  0  0  0  0  0  0  0
  124.3609  124.8780   86.3601 H   0  0  0  0  0  0  0  0  0  0  0  0
  125.2883  125.0325   84.8294 H   0  0  0  0  0  0  0  0  0  0  0  0
  123.5083  125.2741   84.8294 H   0  0  0  0  0  0  0  0  0  0  0  0
  1  2  1  0
  2  3  2  0
  2  4  1  0
  4  5  1  0
  5  6  1  0
  6  7  1  0
  7  8  1  0
  8  9  2  0
  9 10  1  0
 10 11  1  0
 10 12  2  0
 12 13  1  0
 12 14  1  0
 14 15  2  0
 15 16  1  0
 16 17  1  0
 16 18  1  0
 15  8  1  0
  1 19  1  0
  1 20  1  0
  1 21  1  0
  4 22  1  0
  5 23  1  0
  5 24  1  0
  6 25  1  0
  6 26  1  0
  9 27  1  0
 11 28  1  0
 11 29  1  0
 11 30  1  0
 14 31  1  0
 16 32  1  0
 17 33  1  0
 17 34  1  0
 17 35  1  0
 18 36  1  0
 18 37  1  0
 18 38  1  0
M  END
>  <loss>  (21) 
0.6463590264320374

>  <score>  (21) 
3.0188148021698

$$$$
ULFYPRPOCVMQPB-UHFFFAOYSA-N
     RDKit          3D

 38 38  0  0  0  0  0  0  0  0999 V2000
  118.2245  125.0319   83.7828 C   0  0  0  0  0  0  0  0  0  0  0  0
  118.8653  123.7032   84.0819 C   0  0  0  0  0  0  0  0  0  0  0  0
  119.0355  122.8530   83.2148 O   0  0  0  0  0  0  0  0  0  0  0  0
  119.2398  123.5355   85.3943 N   0  0  0  0  0  0  0  0  0  0  0  0
  120.0687  122.4193   85.8132 C   0  0  0  0  0  0  0  0  0  0  0  0
  121.4498  122.3917   85.1531 C   0  0  0  0  0  0  0  0  0  0  0  0
  122.1374  121.2279   85.6179 O   0  0  0  0  0  0  0  0  0  0  0  0
  123.1269  121.3939   86.5511 C   0  0  0  0  0  0  0  0  0  0  0  0
  123.1420  120.7599   87.8021 C   0  0  0  0  0  0  0  0  0  0  0  0
  124.1857  120.9726   88.7196 C   0  0  0  0  0  0  0  0  0  0  0  0
  124.1576  120.2724   90.0493 C   0  0  0  0  0  0  0  0  0  0  0  0
  125.2230  121.8398   88.3628 C   0  0  0  0  0  0  0  0  0  0  0  0
  126.5453  122.1575   89.4283 Cl  0  0  0  0  0  0  0  0  0  0  0  0
  125.2148  122.4797   87.1212 C   0  0  0  0  0  0  0  0  0  0  0  0
  124.1722  122.2702   86.1987 C   0  0  0  0  0  0  0  0  0  0  0  0
  124.1934  122.9883   84.8536 C   0  0  0  0  0  0  0  0  0  0  0  0
  124.8977  124.3449   84.9541 C   0  0  0  0  0  0  0  0  0  0  0  0
  124.8307  122.1221   83.7626 C   0  0  0  0  0  0  0  0  0  0  0  0
  117.9789  125.5412   84.7264 H   0  0  0  0  0  0  0  0  0  0  0  0
  118.9222  125.6529   83.2018 H   0  0  0  0  0  0  0  0  0  0  0  0
  117.3042  124.8726   83.2018 H   0  0  0  0  0  0  0  0  0  0  0  0
  118.9246  124.2187   86.0977 H   0  0  0  0  0  0  0  0  0  0  0  0
  120.2066  122.4798   86.9029 H   0  0  0  0  0  0  0  0  0  0  0  0
  119.5482  121.5008   85.5043 H   0  0  0  0  0  0  0  0  0  0  0  0
  121.3402  122.3489   84.0594 H   0  0  0  0  0  0  0  0  0  0  0  0
  122.0156  123.2990   85.4116 H   0  0  0  0  0  0  0  0  0  0  0  0
  122.3190  120.0814   88.0713 H   0  0  0  0  0  0  0  0  0  0  0  0
  124.1875  121.0183   90.8572 H   0  0  0  0  0  0  0  0  0  0  0  0
  123.2349  119.6792   90.1319 H   0  0  0  0  0  0  0  0  0  0  0  0
  125.0297  119.6071   90.1319 H   0  0  0  0  0  0  0  0  0  0  0  0
  126.0385  123.1601   86.8594 H   0  0  0  0  0  0  0  0  0  0  0  0
  123.1471  123.1714   84.5678 H   0  0  0  0  0  0  0  0  0  0  0  0
  125.0349  124.6092   86.0130 H   0  0  0  0  0  0  0  0  0  0  0  0
  125.8791  124.2859   84.4607 H   0  0  0  0  0  0  0  0  0  0  0  0
  124.2848  125.1136   84.4607 H   0  0  0  0  0  0  0  0  0  0  0  0
  125.4210  121.3199   84.2295 H   0  0  0  0  0  0  0  0  0  0  0  0
  124.0409  121.6800   83.1375 H   0  0  0  0  0  0  0  0  0  0  0  0
  125.4878  122.7445   83.1375 H   0  0  0  0  0  0  0  0  0  0  0  0
  1  2  1  0
  2  3  2  0
  2  4  1  0
  4  5  1  0
  5  6  1  0
  6  7  1  0
  7  8  1  0
  8  9  2  0
  9 10  1  0
 10 11  1  0
 10 12  2  0
 12 13  1  0
 12 14  1  0
 14 15  2  0
 15 16  1  0
 16 17  1  0
 16 18  1  0
 15  8  1  0
  1 19  1  0
  1 20  1  0
  1 21  1  0
  4 22  1  0
  5 23  1  0
  5 24  1  0
  6 25  1  0
  6 26  1  0
  9 27  1  0
 11 28  1  0
 11 29  1  0
 11 30  1  0
 14 31  1  0
 16 32  1  0
 17 33  1  0
 17 34  1  0
 17 35  1  0
 18 36  1  0
 18 37  1  0
 18 38  1  0
M  END
>  <loss>  (22) 
0.6756743788719177

>  <score>  (22) 
2.996373414993286

$$$$
ULFYPRPOCVMQPB-UHFFFAOYSA-N
     RDKit          3D

 38 38  0  0  0  0  0  0  0  0999 V2000
  118.6636  124.4856   83.4947 C   0  0  0  0  0  0  0  0  0  0  0  0
  119.4266  123.7742   84.5793 C   0  0  0  0  0  0  0  0  0  0  0  0
  118.9823  123.6458   85.7156 O   0  0  0  0  0  0  0  0  0  0  0  0
  120.6443  123.2742   84.1805 N   0  0  0  0  0  0  0  0  0  0  0  0
  121.8649  123.6141   84.8933 C   0  0  0  0  0  0  0  0  0  0  0  0
  123.1366  123.0643   84.2313 C   0  0  0  0  0  0  0  0  0  0  0  0
  123.5168  121.7883   84.7737 O   0  0  0  0  0  0  0  0  0  0  0  0
  124.2148  121.8251   85.9518 C   0  0  0  0  0  0  0  0  0  0  0  0
  125.3331  122.6516   86.1195 C   0  0  0  0  0  0  0  0  0  0  0  0
  126.0335  122.6867   87.3351 C   0  0  0  0  0  0  0  0  0  0  0  0
  127.2162  123.6020   87.4816 C   0  0  0  0  0  0  0  0  0  0  0  0
  125.6057  121.8536   88.3747 C   0  0  0  0  0  0  0  0  0  0  0  0
  126.4030  121.8380   89.9070 Cl  0  0  0  0  0  0  0  0  0  0  0  0
  124.5132  120.9985   88.1975 C   0  0  0  0  0  0  0  0  0  0  0  0
  123.8057  120.9617   86.9825 C   0  0  0  0  0  0  0  0  0  0  0  0
  122.6284  120.0117   86.8068 C   0  0  0  0  0  0  0  0  0  0  0  0
  123.0266  118.7685   86.0057 C   0  0  0  0  0  0  0  0  0  0  0  0
  122.0163  119.6182   88.1545 C   0  0  0  0  0  0  0  0  0  0  0  0
  117.9309  125.1686   83.9494 H   0  0  0  0  0  0  0  0  0  0  0  0
  119.3635  125.0610   82.8709 H   0  0  0  0  0  0  0  0  0  0  0  0
  118.1385  123.7472   82.8709 H   0  0  0  0  0  0  0  0  0  0  0  0
  120.6922  122.6488   83.3635 H   0  0  0  0  0  0  0  0  0  0  0  0
  121.9448  124.7101   84.9432 H   0  0  0  0  0  0  0  0  0  0  0  0
  121.7953  123.1540   85.8900 H   0  0  0  0  0  0  0  0  0  0  0  0
  122.9551  122.9519   83.1522 H   0  0  0  0  0  0  0  0  0  0  0  0
  123.9547  123.7736   84.4252 H   0  0  0  0  0  0  0  0  0  0  0  0
  125.6680  123.2841   85.2842 H   0  0  0  0  0  0  0  0  0  0  0  0
  127.4248  123.7634   88.5495 H   0  0  0  0  0  0  0  0  0  0  0  0
  128.0945  123.1460   87.0012 H   0  0  0  0  0  0  0  0  0  0  0  0
  126.9951  124.5666   87.0012 H   0  0  0  0  0  0  0  0  0  0  0  0
  124.2015  120.3425   89.0237 H   0  0  0  0  0  0  0  0  0  0  0  0
  121.8600  120.5515   86.2339 H   0  0  0  0  0  0  0  0  0  0  0  0
  123.2873  117.9543   86.6978 H   0  0  0  0  0  0  0  0  0  0  0  0
  122.1838  118.4553   85.3719 H   0  0  0  0  0  0  0  0  0  0  0  0
  123.8945  119.0032   85.3719 H   0  0  0  0  0  0  0  0  0  0  0  0
  122.6373  120.0175   88.9699 H   0  0  0  0  0  0  0  0  0  0  0  0
  121.0002  120.0327   88.2308 H   0  0  0  0  0  0  0  0  0  0  0  0
  121.9716  118.5217   88.2308 H   0  0  0  0  0  0  0  0  0  0  0  0
  1  2  1  0
  2  3  2  0
  2  4  1  0
  4  5  1  0
  5  6  1  0
  6  7  1  0
  7  8  1  0
  8  9  2  0
  9 10  1  0
 10 11  1  0
 10 12  2  0
 12 13  1  0
 12 14  1  0
 14 15  2  0
 15 16  1  0
 16 17  1  0
 16 18  1  0
 15  8  1  0
  1 19  1  0
  1 20  1  0
  1 21  1  0
  4 22  1  0
  5 23  1  0
  5 24  1  0
  6 25  1  0
  6 26  1  0
  9 27  1  0
 11 28  1  0
 11 29  1  0
 11 30  1  0
 14 31  1  0
 16 32  1  0
 17 33  1  0
 17 34  1  0
 17 35  1  0
 18 36  1  0
 18 37  1  0
 18 38  1  0
M  END
>  <loss>  (23) 
0.8914902210235596

>  <score>  (23) 
2.132559061050415

$$$$
ULFYPRPOCVMQPB-UHFFFAOYSA-N
     RDKit          3D

 38 38  0  0  0  0  0  0  0  0999 V2000
  119.0079  124.8887   83.6180 C   0  0  0  0  0  0  0  0  0  0  0  0
  119.4695  123.6625   84.3584 C   0  0  0  0  0  0  0  0  0  0  0  0
  118.7842  123.1220   85.2205 O   0  0  0  0  0  0  0  0  0  0  0  0
  120.7066  123.2008   83.9734 N   0  0  0  0  0  0  0  0  0  0  0  0
  121.9197  123.6810   84.6149 C   0  0  0  0  0  0  0  0  0  0  0  0
  123.1878  122.9436   84.1615 C   0  0  0  0  0  0  0  0  0  0  0  0
  123.3709  121.7044   84.8672 O   0  0  0  0  0  0  0  0  0  0  0  0
  124.1171  121.7757   86.0138 C   0  0  0  0  0  0  0  0  0  0  0  0
  125.2849  122.5458   86.0855 C   0  0  0  0  0  0  0  0  0  0  0  0
  126.0349  122.6175   87.2694 C   0  0  0  0  0  0  0  0  0  0  0  0
  127.2710  123.4710   87.3118 C   0  0  0  0  0  0  0  0  0  0  0  0
  125.6047  121.8779   88.3766 C   0  0  0  0  0  0  0  0  0  0  0  0
  126.4615  121.9137   89.8760 Cl  0  0  0  0  0  0  0  0  0  0  0  0
  124.4606  121.0772   88.2963 C   0  0  0  0  0  0  0  0  0  0  0  0
  123.7034  121.0042   87.1133 C   0  0  0  0  0  0  0  0  0  0  0  0
  122.4697  120.1141   87.0438 C   0  0  0  0  0  0  0  0  0  0  0  0
  122.8034  118.7390   86.4575 C   0  0  0  0  0  0  0  0  0  0  0  0
  121.7986  119.9738   88.4134 C   0  0  0  0  0  0  0  0  0  0  0  0
  118.7156  125.6649   84.3405 H   0  0  0  0  0  0  0  0  0  0  0  0
  119.8258  125.2652   82.9862 H   0  0  0  0  0  0  0  0  0  0  0  0
  118.1447  124.6323   82.9862 H   0  0  0  0  0  0  0  0  0  0  0  0
  120.7747  122.5035   83.2184 H   0  0  0  0  0  0  0  0  0  0  0  0
  122.0367  124.7497   84.3817 H   0  0  0  0  0  0  0  0  0  0  0  0
  121.8083  123.4980   85.6938 H   0  0  0  0  0  0  0  0  0  0  0  0
  123.1096  122.7312   83.0851 H   0  0  0  0  0  0  0  0  0  0  0  0
  124.0520  123.5889   84.3777 H   0  0  0  0  0  0  0  0  0  0  0  0
  125.6198  123.1038   85.1987 H   0  0  0  0  0  0  0  0  0  0  0  0
  127.5485  123.6626   88.3589 H   0  0  0  0  0  0  0  0  0  0  0  0
  128.0949  122.9485   86.8039 H   0  0  0  0  0  0  0  0  0  0  0  0
  127.0743  124.4266   86.8039 H   0  0  0  0  0  0  0  0  0  0  0  0
  124.1473  120.4939   89.1746 H   0  0  0  0  0  0  0  0  0  0  0  0
  121.7541  120.6053   86.3681 H   0  0  0  0  0  0  0  0  0  0  0  0
  122.9769  118.0240   87.2752 H   0  0  0  0  0  0  0  0  0  0  0  0
  121.9637  118.3909   85.8380 H   0  0  0  0  0  0  0  0  0  0  0  0
  123.7093  118.8146   85.8380 H   0  0  0  0  0  0  0  0  0  0  0  0
  122.5457  120.1300   89.2055 H   0  0  0  0  0  0  0  0  0  0  0  0
  121.0003  120.7245   88.5092 H   0  0  0  0  0  0  0  0  0  0  0  0
  121.3678  118.9662   88.5092 H   0  0  0  0  0  0  0  0  0  0  0  0
  1  2  1  0
  2  3  2  0
  2  4  1  0
  4  5  1  0
  5  6  1  0
  6  7  1  0
  7  8  1  0
  8  9  2  0
  9 10  1  0
 10 11  1  0
 10 12  2  0
 12 13  1  0
 12 14  1  0
 14 15  2  0
 15 16  1  0
 16 17  1  0
 16 18  1  0
 15  8  1  0
  1 19  1  0
  1 20  1  0
  1 21  1  0
  4 22  1  0
  5 23  1  0
  5 24  1  0
  6 25  1  0
  6 26  1  0
  9 27  1  0
 11 28  1  0
 11 29  1  0
 11 30  1  0
 14 31  1  0
 16 32  1  0
 17 33  1  0
 17 34  1  0
 17 35  1  0
 18 36  1  0
 18 37  1  0
 18 38  1  0
M  END
>  <loss>  (24) 
0.8947689533233643

>  <score>  (24) 
-1.574754238128662

$$$$
ULFYPRPOCVMQPB-UHFFFAOYSA-N
     RDKit          3D

 38 38  0  0  0  0  0  0  0  0999 V2000
  118.7487  124.6624   83.1617 C   0  0  0  0  0  0  0  0  0  0  0  0
  118.9603  124.0863   84.5359 C   0  0  0  0  0  0  0  0  0  0  0  0
  118.8461  124.7639   85.5513 O   0  0  0  0  0  0  0  0  0  0  0  0
  119.2856  122.7501   84.5460 N   0  0  0  0  0  0  0  0  0  0  0  0
  120.4536  122.2562   85.2534 C   0  0  0  0  0  0  0  0  0  0  0  0
  121.7465  123.0008   84.9102 C   0  0  0  0  0  0  0  0  0  0  0  0
  122.7941  122.0351   84.7951 O   0  0  0  0  0  0  0  0  0  0  0  0
  123.5296  121.7459   85.9146 C   0  0  0  0  0  0  0  0  0  0  0  0
  123.7605  120.4465   86.3894 C   0  0  0  0  0  0  0  0  0  0  0  0
  124.5254  120.2133   87.5456 C   0  0  0  0  0  0  0  0  0  0  0  0
  124.7478  118.8028   88.0150 C   0  0  0  0  0  0  0  0  0  0  0  0
  125.0625  121.3115   88.2245 C   0  0  0  0  0  0  0  0  0  0  0  0
  126.0130  121.1166   89.6541 Cl  0  0  0  0  0  0  0  0  0  0  0  0
  124.8423  122.6092   87.7572 C   0  0  0  0  0  0  0  0  0  0  0  0
  124.0779  122.8483   86.5993 C   0  0  0  0  0  0  0  0  0  0  0  0
  123.8604  124.2780   86.1156 C   0  0  0  0  0  0  0  0  0  0  0  0
  125.0144  124.7529   85.2271 C   0  0  0  0  0  0  0  0  0  0  0  0
  123.6429  125.2398   87.2879 C   0  0  0  0  0  0  0  0  0  0  0  0
  118.3708  125.6917   83.2498 H   0  0  0  0  0  0  0  0  0  0  0  0
  119.7035  124.6679   82.6154 H   0  0  0  0  0  0  0  0  0  0  0  0
  118.0173  124.0488   82.6154 H   0  0  0  0  0  0  0  0  0  0  0  0
  118.6861  122.0832   84.0394 H   0  0  0  0  0  0  0  0  0  0  0  0
  120.2724  122.3564   86.3338 H   0  0  0  0  0  0  0  0  0  0  0  0
  120.5956  121.2100   84.9447 H   0  0  0  0  0  0  0  0  0  0  0  0
  121.6268  123.5373   83.9573 H   0  0  0  0  0  0  0  0  0  0  0  0
  121.9860  123.7333   85.6951 H   0  0  0  0  0  0  0  0  0  0  0  0
  123.3336  119.5912   85.8452 H   0  0  0  0  0  0  0  0  0  0  0  0
  124.7516  118.7786   89.1147 H   0  0  0  0  0  0  0  0  0  0  0  0
  123.9401  118.1589   87.6368 H   0  0  0  0  0  0  0  0  0  0  0  0
  125.7144  118.4386   87.6368 H   0  0  0  0  0  0  0  0  0  0  0  0
  125.2742  123.4603   88.3040 H   0  0  0  0  0  0  0  0  0  0  0  0
  122.9450  124.2777   85.5057 H   0  0  0  0  0  0  0  0  0  0  0  0
  125.8469  125.0954   85.8593 H   0  0  0  0  0  0  0  0  0  0  0  0
  125.3542  123.9215   84.5920 H   0  0  0  0  0  0  0  0  0  0  0  0
  124.6707  125.5827   84.5920 H   0  0  0  0  0  0  0  0  0  0  0  0
  123.7659  124.6958   88.2361 H   0  0  0  0  0  0  0  0  0  0  0  0
  124.3793  126.0551   87.2347 H   0  0  0  0  0  0  0  0  0  0  0  0
  122.6273  125.6589   87.2347 H   0  0  0  0  0  0  0  0  0  0  0  0
  1  2  1  0
  2  3  2  0
  2  4  1  0
  4  5  1  0
  5  6  1  0
  6  7  1  0
  7  8  1  0
  8  9  2  0
  9 10  1  0
 10 11  1  0
 10 12  2  0
 12 13  1  0
 12 14  1  0
 14 15  2  0
 15 16  1  0
 16 17  1  0
 16 18  1  0
 15  8  1  0
  1 19  1  0
  1 20  1  0
  1 21  1  0
  4 22  1  0
  5 23  1  0
  5 24  1  0
  6 25  1  0
  6 26  1  0
  9 27  1  0
 11 28  1  0
 11 29  1  0
 11 30  1  0
 14 31  1  0
 16 32  1  0
 17 33  1  0
 17 34  1  0
 17 35  1  0
 18 36  1  0
 18 37  1  0
 18 38  1  0
M  END
>  <loss>  (25) 
0.7998822331428528

>  <score>  (25) 
-3.0527098178863525

$$$$
