VABQPFGHDPQYNW-UHFFFAOYSA-N
     RDKit          3D

 25 25  0  0  0  0  0  0  0  0999 V2000
  121.8504  121.5451   90.5113 N   0  0  0  0  0  0  0  0  0  0  0  0
  121.2705  121.5653   89.2728 C   0  0  0  0  0  0  0  0  0  0  0  0
  120.0569  121.4626   89.1494 O   0  0  0  0  0  0  0  0  0  0  0  0
  122.1627  121.7600   88.0991 C   0  0  0  0  0  0  0  0  0  0  0  0
  123.4681  121.2507   88.0664 C   0  0  0  0  0  0  0  0  0  0  0  0
  124.2564  121.4331   86.9300 C   0  0  0  0  0  0  0  0  0  0  0  0
  123.7342  122.1214   85.8354 C   0  0  0  0  0  0  0  0  0  0  0  0
  124.5206  122.2806   84.7216 O   0  0  0  0  0  0  0  0  0  0  0  0
  125.6479  123.1204   85.0378 C   0  0  0  0  0  0  0  0  0  0  0  0
  126.8935  122.6159   84.3302 C   0  0  0  0  0  0  0  0  0  0  0  0
  127.3590  121.4755   84.8878 F   0  0  0  0  0  0  0  0  0  0  0  0
  127.8854  123.5352   84.3997 F   0  0  0  0  0  0  0  0  0  0  0  0
  126.6613  122.3749   83.0204 F   0  0  0  0  0  0  0  0  0  0  0  0
  122.4556  122.7003   85.8735 C   0  0  0  0  0  0  0  0  0  0  0  0
  121.9099  123.3140   84.7324 N   0  0  0  0  0  0  0  0  0  0  0  0
  121.6543  122.4557   86.9906 C   0  0  0  0  0  0  0  0  0  0  0  0
  122.8726  121.6323   90.6028 H   0  0  0  0  0  0  0  0  0  0  0  0
  121.2649  121.4425   91.3525 H   0  0  0  0  0  0  0  0  0  0  0  0
  123.8700  120.7083   88.9349 H   0  0  0  0  0  0  0  0  0  0  0  0
  125.2822  121.0370   86.8976 H   0  0  0  0  0  0  0  0  0  0  0  0
  125.4368  124.1496   84.7119 H   0  0  0  0  0  0  0  0  0  0  0  0
  125.8186  123.0976   86.1242 H   0  0  0  0  0  0  0  0  0  0  0  0
  120.9708  123.7351   84.7734 H   0  0  0  0  0  0  0  0  0  0  0  0
  122.4492  123.3426   83.8553 H   0  0  0  0  0  0  0  0  0  0  0  0
  120.6137  122.8119   87.0022 H   0  0  0  0  0  0  0  0  0  0  0  0
  1  2  1  0
  2  3  2  0
  2  4  1  0
  4  5  2  0
  5  6  1  0
  6  7  2  0
  7  8  1  0
  8  9  1  0
  9 10  1  0
 10 11  1  0
 10 12  1  0
 10 13  1  0
  7 14  1  0
 14 15  1  0
 14 16  2  0
 16  4  1  0
  1 17  1  0
  1 18  1  0
  5 19  1  0
  6 20  1  0
  9 21  1  0
  9 22  1  0
 15 23  1  0
 15 24  1  0
 16 25  1  0
M  END
>  <loss>  (1) 
0.6886608600616455

>  <score>  (1) 
2.970989942550659

$$$$
VABQPFGHDPQYNW-UHFFFAOYSA-N
     RDKit          3D

 25 25  0  0  0  0  0  0  0  0999 V2000
  121.5961  120.8560   90.1789 N   0  0  0  0  0  0  0  0  0  0  0  0
  121.3430  121.8226   89.2448 C   0  0  0  0  0  0  0  0  0  0  0  0
  120.4057  122.5972   89.3849 O   0  0  0  0  0  0  0  0  0  0  0  0
  122.2189  121.8632   88.0436 C   0  0  0  0  0  0  0  0  0  0  0  0
  123.5118  121.3222   88.0491 C   0  0  0  0  0  0  0  0  0  0  0  0
  124.3068  121.4108   86.9062 C   0  0  0  0  0  0  0  0  0  0  0  0
  123.8047  122.0407   85.7680 C   0  0  0  0  0  0  0  0  0  0  0  0
  124.6048  122.1289   84.6560 O   0  0  0  0  0  0  0  0  0  0  0  0
  125.5636  123.1901   84.8307 C   0  0  0  0  0  0  0  0  0  0  0  0
  126.9322  122.7486   84.3416 C   0  0  0  0  0  0  0  0  0  0  0  0
  127.5841  122.0160   85.2717 F   0  0  0  0  0  0  0  0  0  0  0  0
  126.8455  122.0083   83.2137 F   0  0  0  0  0  0  0  0  0  0  0  0
  127.7069  123.8234   84.0618 F   0  0  0  0  0  0  0  0  0  0  0  0
  122.4886  122.5272   85.7179 C   0  0  0  0  0  0  0  0  0  0  0  0
  122.0271  123.2368   84.5956 N   0  0  0  0  0  0  0  0  0  0  0  0
  121.7265  122.4889   86.8872 C   0  0  0  0  0  0  0  0  0  0  0  0
  122.3879  120.2099   90.0500 H   0  0  0  0  0  0  0  0  0  0  0  0
  120.9950  120.7741   91.0113 H   0  0  0  0  0  0  0  0  0  0  0  0
  123.8990  120.8289   88.9528 H   0  0  0  0  0  0  0  0  0  0  0  0
  125.3219  120.9871   86.9029 H   0  0  0  0  0  0  0  0  0  0  0  0
  125.2395  124.0705   84.2564 H   0  0  0  0  0  0  0  0  0  0  0  0
  125.6292  123.4413   85.8997 H   0  0  0  0  0  0  0  0  0  0  0  0
  121.0594  123.5886   84.5708 H   0  0  0  0  0  0  0  0  0  0  0  0
  122.6568  123.4049   83.7979 H   0  0  0  0  0  0  0  0  0  0  0  0
  120.7297  122.9539   86.9026 H   0  0  0  0  0  0  0  0  0  0  0  0
  1  2  1  0
  2  3  2  0
  2  4  1  0
  4  5  2  0
  5  6  1  0
  6  7  2  0
  7  8  1  0
  8  9  1  0
  9 10  1  0
 10 11  1  0
 10 12  1  0
 10 13  1  0
  7 14  1  0
 14 15  1  0
 14 16  2  0
 16  4  1  0
  1 17  1  0
  1 18  1  0
  5 19  1  0
  6 20  1  0
  9 21  1  0
  9 22  1  0
 15 23  1  0
 15 24  1  0
 16 25  1  0
M  END
>  <loss>  (2) 
0.6934641599655151

>  <score>  (2) 
2.8931071758270264

$$$$
VABQPFGHDPQYNW-UHFFFAOYSA-N
     RDKit          3D

 25 25  0  0  0  0  0  0  0  0999 V2000
  120.7370  121.2256   89.7397 N   0  0  0  0  0  0  0  0  0  0  0  0
  120.7808  121.6342   88.4350 C   0  0  0  0  0  0  0  0  0  0  0  0
  119.7496  121.9117   87.8362 O   0  0  0  0  0  0  0  0  0  0  0  0
  122.1188  121.7703   87.7990 C   0  0  0  0  0  0  0  0  0  0  0  0
  122.3132  122.4850   86.6128 C   0  0  0  0  0  0  0  0  0  0  0  0
  123.5950  122.6049   86.0617 C   0  0  0  0  0  0  0  0  0  0  0  0
  124.6906  122.0085   86.6899 C   0  0  0  0  0  0  0  0  0  0  0  0
  125.9896  122.0587   86.2504 O   0  0  0  0  0  0  0  0  0  0  0  0
  126.3037  121.6173   84.9264 C   0  0  0  0  0  0  0  0  0  0  0  0
  126.7889  122.7262   84.0022 C   0  0  0  0  0  0  0  0  0  0  0  0
  125.7697  123.4049   83.4338 F   0  0  0  0  0  0  0  0  0  0  0  0
  127.5186  122.1928   82.9905 F   0  0  0  0  0  0  0  0  0  0  0  0
  127.5821  123.6102   84.6433 F   0  0  0  0  0  0  0  0  0  0  0  0
  124.4939  121.2574   87.8690 C   0  0  0  0  0  0  0  0  0  0  0  0
  125.5972  120.7629   88.5907 N   0  0  0  0  0  0  0  0  0  0  0  0
  123.2177  121.1848   88.4367 C   0  0  0  0  0  0  0  0  0  0  0  0
  121.6091  120.9940   90.2364 H   0  0  0  0  0  0  0  0  0  0  0  0
  119.8319  121.1495   90.2255 H   0  0  0  0  0  0  0  0  0  0  0  0
  121.4552  122.9553   86.1102 H   0  0  0  0  0  0  0  0  0  0  0  0
  123.7397  123.1712   85.1298 H   0  0  0  0  0  0  0  0  0  0  0  0
  127.0927  120.8539   84.9945 H   0  0  0  0  0  0  0  0  0  0  0  0
  125.3719  121.2260   84.4921 H   0  0  0  0  0  0  0  0  0  0  0  0
  125.4469  120.2156   89.4502 H   0  0  0  0  0  0  0  0  0  0  0  0
  126.5545  120.9485   88.2591 H   0  0  0  0  0  0  0  0  0  0  0  0
  123.0767  120.6619   89.3942 H   0  0  0  0  0  0  0  0  0  0  0  0
  1  2  1  0
  2  3  2  0
  2  4  1  0
  4  5  2  0
  5  6  1  0
  6  7  2  0
  7  8  1  0
  8  9  1  0
  9 10  1  0
 10 11  1  0
 10 12  1  0
 10 13  1  0
  7 14  1  0
 14 15  1  0
 14 16  2  0
 16  4  1  0
  1 17  1  0
  1 18  1  0
  5 19  1  0
  6 20  1  0
  9 21  1  0
  9 22  1  0
 15 23  1  0
 15 24  1  0
 16 25  1  0
M  END
>  <loss>  (3) 
0.7007556557655334

>  <score>  (3) 
2.825791120529175

$$$$
VABQPFGHDPQYNW-UHFFFAOYSA-N
     RDKit          3D

 25 25  0  0  0  0  0  0  0  0999 V2000
  121.5360  121.2565   90.1004 N   0  0  0  0  0  0  0  0  0  0  0  0
  121.1285  121.8256   88.9258 C   0  0  0  0  0  0  0  0  0  0  0  0
  119.9973  122.2806   88.8121 O   0  0  0  0  0  0  0  0  0  0  0  0
  122.1171  121.9101   87.8179 C   0  0  0  0  0  0  0  0  0  0  0  0
  123.4034  121.4057   88.0403 C   0  0  0  0  0  0  0  0  0  0  0  0
  124.3794  121.4851   87.0430 C   0  0  0  0  0  0  0  0  0  0  0  0
  124.0726  122.0690   85.8121 C   0  0  0  0  0  0  0  0  0  0  0  0
  124.9510  122.2002   84.7636 O   0  0  0  0  0  0  0  0  0  0  0  0
  126.3459  122.0861   85.0681 C   0  0  0  0  0  0  0  0  0  0  0  0
  127.1303  123.1968   84.3867 C   0  0  0  0  0  0  0  0  0  0  0  0
  126.3179  124.1144   83.8190 F   0  0  0  0  0  0  0  0  0  0  0  0
  127.9508  122.7136   83.4273 F   0  0  0  0  0  0  0  0  0  0  0  0
  127.9051  123.8460   85.2887 F   0  0  0  0  0  0  0  0  0  0  0  0
  122.7657  122.5406   85.5638 C   0  0  0  0  0  0  0  0  0  0  0  0
  122.4789  123.2465   84.3792 N   0  0  0  0  0  0  0  0  0  0  0  0
  121.8111  122.5008   86.5867 C   0  0  0  0  0  0  0  0  0  0  0  0
  122.4897  120.8768   90.1851 H   0  0  0  0  0  0  0  0  0  0  0  0
  120.8892  121.2075   90.9005 H   0  0  0  0  0  0  0  0  0  0  0  0
  123.6484  120.9431   89.0078 H   0  0  0  0  0  0  0  0  0  0  0  0
  125.3885  121.0879   87.2275 H   0  0  0  0  0  0  0  0  0  0  0  0
  126.4863  122.1586   86.1567 H   0  0  0  0  0  0  0  0  0  0  0  0
  126.7124  121.1151   84.7035 H   0  0  0  0  0  0  0  0  0  0  0  0
  121.5238  123.5887   84.2021 H   0  0  0  0  0  0  0  0  0  0  0  0
  123.2244  123.4204   83.6900 H   0  0  0  0  0  0  0  0  0  0  0  0
  120.8145  122.9363   86.4218 H   0  0  0  0  0  0  0  0  0  0  0  0
  1  2  1  0
  2  3  2  0
  2  4  1  0
  4  5  2  0
  5  6  1  0
  6  7  2  0
  7  8  1  0
  8  9  1  0
  9 10  1  0
 10 11  1  0
 10 12  1  0
 10 13  1  0
  7 14  1  0
 14 15  1  0
 14 16  2  0
 16  4  1  0
  1 17  1  0
  1 18  1  0
  5 19  1  0
  6 20  1  0
  9 21  1  0
  9 22  1  0
 15 23  1  0
 15 24  1  0
 16 25  1  0
M  END
>  <loss>  (4) 
0.6986758708953857

>  <score>  (4) 
2.7801477909088135

$$$$
VABQPFGHDPQYNW-UHFFFAOYSA-N
     RDKit          3D

 25 25  0  0  0  0  0  0  0  0999 V2000
  120.9076  120.1651   89.4236 N   0  0  0  0  0  0  0  0  0  0  0  0
  121.3602  121.4495   89.3013 C   0  0  0  0  0  0  0  0  0  0  0  0
  121.1184  122.2797   90.1685 O   0  0  0  0  0  0  0  0  0  0  0  0
  122.1875  121.7831   88.1107 C   0  0  0  0  0  0  0  0  0  0  0  0
  123.5650  121.5473   88.1757 C   0  0  0  0  0  0  0  0  0  0  0  0
  124.3944  121.8652   87.0952 C   0  0  0  0  0  0  0  0  0  0  0  0
  123.8504  122.4185   85.9355 C   0  0  0  0  0  0  0  0  0  0  0  0
  124.5541  122.7716   84.8114 O   0  0  0  0  0  0  0  0  0  0  0  0
  125.2454  121.7607   84.0705 C   0  0  0  0  0  0  0  0  0  0  0  0
  126.7613  121.9050   84.0936 C   0  0  0  0  0  0  0  0  0  0  0  0
  127.3009  121.4947   85.2604 F   0  0  0  0  0  0  0  0  0  0  0  0
  127.3099  121.1428   83.1147 F   0  0  0  0  0  0  0  0  0  0  0  0
  127.1502  123.1790   83.8717 F   0  0  0  0  0  0  0  0  0  0  0  0
  122.4553  122.6247   85.8488 C   0  0  0  0  0  0  0  0  0  0  0  0
  121.9061  123.3035   84.7429 N   0  0  0  0  0  0  0  0  0  0  0  0
  121.6414  122.3489   86.9541 C   0  0  0  0  0  0  0  0  0  0  0  0
  121.1158  119.4735   88.6893 H   0  0  0  0  0  0  0  0  0  0  0  0
  120.3585  119.8891   90.2502 H   0  0  0  0  0  0  0  0  0  0  0  0
  124.0000  121.1076   89.0853 H   0  0  0  0  0  0  0  0  0  0  0  0
  125.4766  121.6789   87.1598 H   0  0  0  0  0  0  0  0  0  0  0  0
  124.9845  120.7805   84.4960 H   0  0  0  0  0  0  0  0  0  0  0  0
  124.9314  121.8637   83.0214 H   0  0  0  0  0  0  0  0  0  0  0  0
  120.8886  123.4520   84.6832 H   0  0  0  0  0  0  0  0  0  0  0  0
  122.5222  123.6512   83.9942 H   0  0  0  0  0  0  0  0  0  0  0  0
  120.5664  122.5784   86.9126 H   0  0  0  0  0  0  0  0  0  0  0  0
  1  2  1  0
  2  3  2  0
  2  4  1  0
  4  5  2  0
  5  6  1  0
  6  7  2  0
  7  8  1  0
  8  9  1  0
  9 10  1  0
 10 11  1  0
 10 12  1  0
 10 13  1  0
  7 14  1  0
 14 15  1  0
 14 16  2  0
 16  4  1  0
  1 17  1  0
  1 18  1  0
  5 19  1  0
  6 20  1  0
  9 21  1  0
  9 22  1  0
 15 23  1  0
 15 24  1  0
 16 25  1  0
M  END
>  <loss>  (5) 
0.713573694229126

>  <score>  (5) 
2.643873453140259

$$$$
VABQPFGHDPQYNW-UHFFFAOYSA-N
     RDKit          3D

 25 25  0  0  0  0  0  0  0  0999 V2000
  123.5459  120.5767   90.5747 N   0  0  0  0  0  0  0  0  0  0  0  0
  122.5930  121.2355   89.8473 C   0  0  0  0  0  0  0  0  0  0  0  0
  121.5276  121.5514   90.3612 O   0  0  0  0  0  0  0  0  0  0  0  0
  122.9207  121.5882   88.4397 C   0  0  0  0  0  0  0  0  0  0  0  0
  124.1960  121.3965   87.8987 C   0  0  0  0  0  0  0  0  0  0  0  0
  124.4531  121.7233   86.5614 C   0  0  0  0  0  0  0  0  0  0  0  0
  123.4389  122.2471   85.7566 C   0  0  0  0  0  0  0  0  0  0  0  0
  123.5673  122.6008   84.4370 O   0  0  0  0  0  0  0  0  0  0  0  0
  124.2658  123.8009   84.0932 C   0  0  0  0  0  0  0  0  0  0  0  0
  125.5373  123.5688   83.2879 C   0  0  0  0  0  0  0  0  0  0  0  0
  126.5934  123.2620   84.0710 F   0  0  0  0  0  0  0  0  0  0  0  0
  125.8642  124.6989   82.6121 F   0  0  0  0  0  0  0  0  0  0  0  0
  125.3872  122.5868   82.3742 F   0  0  0  0  0  0  0  0  0  0  0  0
  122.1592  122.4744   86.3079 C   0  0  0  0  0  0  0  0  0  0  0  0
  121.0894  122.8730   85.4839 N   0  0  0  0  0  0  0  0  0  0  0  0
  121.9005  122.0995   87.6304 C   0  0  0  0  0  0  0  0  0  0  0  0
  124.4396  120.3144   90.1348 H   0  0  0  0  0  0  0  0  0  0  0  0
  123.3697  120.3428   91.5622 H   0  0  0  0  0  0  0  0  0  0  0  0
  125.0011  120.9870   88.5265 H   0  0  0  0  0  0  0  0  0  0  0  0
  125.4582  121.5666   86.1429 H   0  0  0  0  0  0  0  0  0  0  0  0
  123.5914  124.4355   83.4994 H   0  0  0  0  0  0  0  0  0  0  0  0
  124.5698  124.2740   85.0386 H   0  0  0  0  0  0  0  0  0  0  0  0
  120.1582  123.0372   85.8923 H   0  0  0  0  0  0  0  0  0  0  0  0
  121.2380  123.0004   84.4727 H   0  0  0  0  0  0  0  0  0  0  0  0
  120.8847  122.2078   88.0382 H   0  0  0  0  0  0  0  0  0  0  0  0
  1  2  1  0
  2  3  2  0
  2  4  1  0
  4  5  2  0
  5  6  1  0
  6  7  2  0
  7  8  1  0
  8  9  1  0
  9 10  1  0
 10 11  1  0
 10 12  1  0
 10 13  1  0
  7 14  1  0
 14 15  1  0
 14 16  2  0
 16  4  1  0
  1 17  1  0
  1 18  1  0
  5 19  1  0
  6 20  1  0
  9 21  1  0
  9 22  1  0
 15 23  1  0
 15 24  1  0
 16 25  1  0
M  END
>  <loss>  (6) 
0.7322099804878235

>  <score>  (6) 
2.514063596725464

$$$$
VABQPFGHDPQYNW-UHFFFAOYSA-N
     RDKit          3D

 25 25  0  0  0  0  0  0  0  0999 V2000
  123.3896  120.3417   90.4273 N   0  0  0  0  0  0  0  0  0  0  0  0
  122.5648  121.2373   89.8044 C   0  0  0  0  0  0  0  0  0  0  0  0
  121.6128  121.7273   90.3977 O   0  0  0  0  0  0  0  0  0  0  0  0
  122.8963  121.6197   88.4060 C   0  0  0  0  0  0  0  0  0  0  0  0
  124.1941  121.4981   87.8909 C   0  0  0  0  0  0  0  0  0  0  0  0
  124.4492  121.8412   86.5629 C   0  0  0  0  0  0  0  0  0  0  0  0
  123.4059  122.3016   85.7603 C   0  0  0  0  0  0  0  0  0  0  0  0
  123.6737  122.6230   84.4529 O   0  0  0  0  0  0  0  0  0  0  0  0
  125.0955  122.7659   84.2682 C   0  0  0  0  0  0  0  0  0  0  0  0
  125.3903  123.9345   83.3441 C   0  0  0  0  0  0  0  0  0  0  0  0
  124.2689  124.6232   83.0342 F   0  0  0  0  0  0  0  0  0  0  0  0
  125.9315  123.4974   82.1822 F   0  0  0  0  0  0  0  0  0  0  0  0
  126.2711  124.7987   83.8964 F   0  0  0  0  0  0  0  0  0  0  0  0
  122.1144  122.4977   86.2749 C   0  0  0  0  0  0  0  0  0  0  0  0
  121.0548  122.8777   85.4327 N   0  0  0  0  0  0  0  0  0  0  0  0
  121.8584  122.0904   87.5858 C   0  0  0  0  0  0  0  0  0  0  0  0
  124.1876  119.9359   89.9180 H   0  0  0  0  0  0  0  0  0  0  0  0
  123.2128  120.0729   91.4058 H   0  0  0  0  0  0  0  0  0  0  0  0
  125.0097  121.1329   88.5323 H   0  0  0  0  0  0  0  0  0  0  0  0
  125.4655  121.7493   86.1522 H   0  0  0  0  0  0  0  0  0  0  0  0
  125.5723  122.9446   85.2433 H   0  0  0  0  0  0  0  0  0  0  0  0
  125.4932  121.8440   83.8187 H   0  0  0  0  0  0  0  0  0  0  0  0
  120.1120  123.0184   85.8228 H   0  0  0  0  0  0  0  0  0  0  0  0
  121.2214  123.0155   84.4257 H   0  0  0  0  0  0  0  0  0  0  0  0
  120.8327  122.1389   87.9801 H   0  0  0  0  0  0  0  0  0  0  0  0
  1  2  1  0
  2  3  2  0
  2  4  1  0
  4  5  2  0
  5  6  1  0
  6  7  2  0
  7  8  1  0
  8  9  1  0
  9 10  1  0
 10 11  1  0
 10 12  1  0
 10 13  1  0
  7 14  1  0
 14 15  1  0
 14 16  2  0
 16  4  1  0
  1 17  1  0
  1 18  1  0
  5 19  1  0
  6 20  1  0
  9 21  1  0
  9 22  1  0
 15 23  1  0
 15 24  1  0
 16 25  1  0
M  END
>  <loss>  (7) 
0.7256439924240112

>  <score>  (7) 
2.398503541946411

$$$$
VABQPFGHDPQYNW-UHFFFAOYSA-N
     RDKit          3D

 25 25  0  0  0  0  0  0  0  0999 V2000
  121.8246  124.2476   84.6472 N   0  0  0  0  0  0  0  0  0  0  0  0
  121.3687  123.3780   85.5993 C   0  0  0  0  0  0  0  0  0  0  0  0
  120.1706  123.1595   85.7237 O   0  0  0  0  0  0  0  0  0  0  0  0
  122.3819  122.6835   86.4377 C   0  0  0  0  0  0  0  0  0  0  0  0
  122.0687  122.1602   87.6996 C   0  0  0  0  0  0  0  0  0  0  0  0
  123.0461  121.4900   88.4356 C   0  0  0  0  0  0  0  0  0  0  0  0
  124.3277  121.3471   87.9047 C   0  0  0  0  0  0  0  0  0  0  0  0
  125.2728  120.6742   88.6383 O   0  0  0  0  0  0  0  0  0  0  0  0
  124.9020  120.6785   90.0306 C   0  0  0  0  0  0  0  0  0  0  0  0
  126.1363  120.8300   90.9025 C   0  0  0  0  0  0  0  0  0  0  0  0
  127.2709  120.5743   90.2130 F   0  0  0  0  0  0  0  0  0  0  0  0
  126.0918  119.9660   91.9443 F   0  0  0  0  0  0  0  0  0  0  0  0
  126.2339  122.0757   91.4186 F   0  0  0  0  0  0  0  0  0  0  0  0
  124.6820  121.9240   86.6747 C   0  0  0  0  0  0  0  0  0  0  0  0
  125.9504  121.6966   86.1126 N   0  0  0  0  0  0  0  0  0  0  0  0
  123.6788  122.5358   85.9203 C   0  0  0  0  0  0  0  0  0  0  0  0
  122.8349  124.4235   84.5519 H   0  0  0  0  0  0  0  0  0  0  0  0
  121.1575  124.7265   84.0255 H   0  0  0  0  0  0  0  0  0  0  0  0
  121.0544  122.2776   88.1087 H   0  0  0  0  0  0  0  0  0  0  0  0
  122.8078  121.0776   89.4271 H   0  0  0  0  0  0  0  0  0  0  0  0
  124.2172  121.5178   90.2216 H   0  0  0  0  0  0  0  0  0  0  0  0
  124.4066  119.7266   90.2727 H   0  0  0  0  0  0  0  0  0  0  0  0
  126.1980  122.1257   85.2096 H   0  0  0  0  0  0  0  0  0  0  0  0
  126.6320  121.1008   86.6038 H   0  0  0  0  0  0  0  0  0  0  0  0
  123.9070  122.9060   84.9099 H   0  0  0  0  0  0  0  0  0  0  0  0
  1  2  1  0
  2  3  2  0
  2  4  1  0
  4  5  2  0
  5  6  1  0
  6  7  2  0
  7  8  1  0
  8  9  1  0
  9 10  1  0
 10 11  1  0
 10 12  1  0
 10 13  1  0
  7 14  1  0
 14 15  1  0
 14 16  2  0
 16  4  1  0
  1 17  1  0
  1 18  1  0
  5 19  1  0
  6 20  1  0
  9 21  1  0
  9 22  1  0
 15 23  1  0
 15 24  1  0
 16 25  1  0
M  END
>  <loss>  (8) 
0.8098488450050354

>  <score>  (8) 
2.667778491973877

$$$$
VABQPFGHDPQYNW-UHFFFAOYSA-N
     RDKit          3D

 25 25  0  0  0  0  0  0  0  0999 V2000
  120.2827  121.6289   88.9321 N   0  0  0  0  0  0  0  0  0  0  0  0
  120.6177  122.1619   87.7177 C   0  0  0  0  0  0  0  0  0  0  0  0
  119.7641  122.6828   87.0113 O   0  0  0  0  0  0  0  0  0  0  0  0
  122.0506  122.1243   87.3192 C   0  0  0  0  0  0  0  0  0  0  0  0
  122.9860  121.3128   87.9690 C   0  0  0  0  0  0  0  0  0  0  0  0
  124.3206  121.2937   87.5453 C   0  0  0  0  0  0  0  0  0  0  0  0
  124.7305  122.0878   86.4720 C   0  0  0  0  0  0  0  0  0  0  0  0
  126.0040  122.1518   85.9650 O   0  0  0  0  0  0  0  0  0  0  0  0
  126.6417  120.9560   85.5069 C   0  0  0  0  0  0  0  0  0  0  0  0
  127.2481  121.0713   84.1147 C   0  0  0  0  0  0  0  0  0  0  0  0
  126.5221  121.8678   83.3017 F   0  0  0  0  0  0  0  0  0  0  0  0
  127.2904  119.8474   83.5307 F   0  0  0  0  0  0  0  0  0  0  0  0
  128.5131  121.5407   84.1495 F   0  0  0  0  0  0  0  0  0  0  0  0
  123.7972  122.9342   85.8351 C   0  0  0  0  0  0  0  0  0  0  0  0
  124.1546  123.6392   84.6698 N   0  0  0  0  0  0  0  0  0  0  0  0
  122.4571  122.9093   86.2349 C   0  0  0  0  0  0  0  0  0  0  0  0
  121.0068  121.1924   89.5204 H   0  0  0  0  0  0  0  0  0  0  0  0
  119.3063  121.6640   89.2583 H   0  0  0  0  0  0  0  0  0  0  0  0
  122.6719  120.6865   88.8170 H   0  0  0  0  0  0  0  0  0  0  0  0
  125.0494  120.6503   88.0601 H   0  0  0  0  0  0  0  0  0  0  0  0
  127.4447  120.6998   86.2137 H   0  0  0  0  0  0  0  0  0  0  0  0
  125.8628  120.1813   85.4515 H   0  0  0  0  0  0  0  0  0  0  0  0
  123.4690  124.2551   84.2099 H   0  0  0  0  0  0  0  0  0  0  0  0
  125.1016  123.5390   84.2773 H   0  0  0  0  0  0  0  0  0  0  0  0
  121.7154  123.5131   85.6914 H   0  0  0  0  0  0  0  0  0  0  0  0
  1  2  1  0
  2  3  2  0
  2  4  1  0
  4  5  2  0
  5  6  1  0
  6  7  2  0
  7  8  1  0
  8  9  1  0
  9 10  1  0
 10 11  1  0
 10 12  1  0
 10 13  1  0
  7 14  1  0
 14 15  1  0
 14 16  2  0
 16  4  1  0
  1 17  1  0
  1 18  1  0
  5 19  1  0
  6 20  1  0
  9 21  1  0
  9 22  1  0
 15 23  1  0
 15 24  1  0
 16 25  1  0
M  END
>  <loss>  (9) 
0.8679466843605042

>  <score>  (9) 
2.67110013961792

$$$$
VABQPFGHDPQYNW-UHFFFAOYSA-N
     RDKit          3D

 25 25  0  0  0  0  0  0  0  0999 V2000
  122.0639  124.0458   84.7552 N   0  0  0  0  0  0  0  0  0  0  0  0
  121.5029  123.2590   85.7233 C   0  0  0  0  0  0  0  0  0  0  0  0
  120.2869  123.1835   85.8407 O   0  0  0  0  0  0  0  0  0  0  0  0
  122.4240  122.5419   86.6448 C   0  0  0  0  0  0  0  0  0  0  0  0
  123.7978  122.4371   86.3879 C   0  0  0  0  0  0  0  0  0  0  0  0
  124.6170  121.7287   87.2673 C   0  0  0  0  0  0  0  0  0  0  0  0
  124.0569  121.1292   88.3947 C   0  0  0  0  0  0  0  0  0  0  0  0
  124.8758  120.4264   89.2434 O   0  0  0  0  0  0  0  0  0  0  0  0
  126.0509  121.2056   89.5401 C   0  0  0  0  0  0  0  0  0  0  0  0
  126.4946  120.9637   90.9725 C   0  0  0  0  0  0  0  0  0  0  0  0
  125.5402  121.3223   91.8598 F   0  0  0  0  0  0  0  0  0  0  0  0
  126.7986  119.6645   91.1895 F   0  0  0  0  0  0  0  0  0  0  0  0
  127.6008  121.6913   91.2570 F   0  0  0  0  0  0  0  0  0  0  0  0
  122.6966  121.2803   88.7078 C   0  0  0  0  0  0  0  0  0  0  0  0
  122.1303  120.5978   89.7986 N   0  0  0  0  0  0  0  0  0  0  0  0
  121.8772  121.9372   87.7877 C   0  0  0  0  0  0  0  0  0  0  0  0
  123.0885  124.1012   84.6663 H   0  0  0  0  0  0  0  0  0  0  0  0
  121.4616  124.5830   84.1152 H   0  0  0  0  0  0  0  0  0  0  0  0
  124.2293  122.9124   85.4947 H   0  0  0  0  0  0  0  0  0  0  0  0
  125.6963  121.6437   87.0727 H   0  0  0  0  0  0  0  0  0  0  0  0
  126.8612  120.9156   88.8551 H   0  0  0  0  0  0  0  0  0  0  0  0
  125.8147  122.2724   89.4135 H   0  0  0  0  0  0  0  0  0  0  0  0
  121.1310  120.7170   90.0181 H   0  0  0  0  0  0  0  0  0  0  0  0
  122.7146  119.9787   90.3783 H   0  0  0  0  0  0  0  0  0  0  0  0
  120.7917  121.9814   87.9602 H   0  0  0  0  0  0  0  0  0  0  0  0
  1  2  1  0
  2  3  2  0
  2  4  1  0
  4  5  2  0
  5  6  1  0
  6  7  2  0
  7  8  1  0
  8  9  1  0
  9 10  1  0
 10 11  1  0
 10 12  1  0
 10 13  1  0
  7 14  1  0
 14 15  1  0
 14 16  2  0
 16  4  1  0
  1 17  1  0
  1 18  1  0
  5 19  1  0
  6 20  1  0
  9 21  1  0
  9 22  1  0
 15 23  1  0
 15 24  1  0
 16 25  1  0
M  END
>  <loss>  (10) 
0.8589545488357544

>  <score>  (10) 
2.609245538711548

$$$$
VABQPFGHDPQYNW-UHFFFAOYSA-N
     RDKit          3D

 25 25  0  0  0  0  0  0  0  0999 V2000
  122.0297  123.9314   84.7004 N   0  0  0  0  0  0  0  0  0  0  0  0
  121.4662  123.2569   85.7477 C   0  0  0  0  0  0  0  0  0  0  0  0
  120.2498  123.2207   85.8848 O   0  0  0  0  0  0  0  0  0  0  0  0
  122.3766  122.5386   86.6788 C   0  0  0  0  0  0  0  0  0  0  0  0
  123.7422  122.5069   86.3743 C   0  0  0  0  0  0  0  0  0  0  0  0
  124.6380  121.8220   87.2002 C   0  0  0  0  0  0  0  0  0  0  0  0
  124.1719  121.1649   88.3409 C   0  0  0  0  0  0  0  0  0  0  0  0
  124.9600  120.4631   89.2209 O   0  0  0  0  0  0  0  0  0  0  0  0
  126.2585  121.0001   89.4988 C   0  0  0  0  0  0  0  0  0  0  0  0
  126.5501  120.9378   90.9903 C   0  0  0  0  0  0  0  0  0  0  0  0
  126.6000  119.6663   91.4429 F   0  0  0  0  0  0  0  0  0  0  0  0
  125.6187  121.6022   91.7101 F   0  0  0  0  0  0  0  0  0  0  0  0
  127.7487  121.5095   91.2585 F   0  0  0  0  0  0  0  0  0  0  0  0
  122.8032  121.2285   88.6791 C   0  0  0  0  0  0  0  0  0  0  0  0
  122.3005  120.4650   89.7506 N   0  0  0  0  0  0  0  0  0  0  0  0
  121.9083  121.8750   87.8185 C   0  0  0  0  0  0  0  0  0  0  0  0
  123.0540  123.9554   84.5947 H   0  0  0  0  0  0  0  0  0  0  0  0
  121.4300  124.4155   84.0171 H   0  0  0  0  0  0  0  0  0  0  0  0
  124.1135  123.0250   85.4779 H   0  0  0  0  0  0  0  0  0  0  0  0
  125.7094  121.8007   86.9519 H   0  0  0  0  0  0  0  0  0  0  0  0
  127.0162  120.4154   88.9567 H   0  0  0  0  0  0  0  0  0  0  0  0
  126.2872  122.0505   89.1733 H   0  0  0  0  0  0  0  0  0  0  0  0
  121.3009  120.5146   89.9940 H   0  0  0  0  0  0  0  0  0  0  0  0
  122.9326  119.8572   90.2909 H   0  0  0  0  0  0  0  0  0  0  0  0
  120.8308  121.8615   88.0393 H   0  0  0  0  0  0  0  0  0  0  0  0
  1  2  1  0
  2  3  2  0
  2  4  1  0
  4  5  2  0
  5  6  1  0
  6  7  2  0
  7  8  1  0
  8  9  1  0
  9 10  1  0
 10 11  1  0
 10 12  1  0
 10 13  1  0
  7 14  1  0
 14 15  1  0
 14 16  2  0
 16  4  1  0
  1 17  1  0
  1 18  1  0
  5 19  1  0
  6 20  1  0
  9 21  1  0
  9 22  1  0
 15 23  1  0
 15 24  1  0
 16 25  1  0
M  END
>  <loss>  (11) 
0.8700935244560242

>  <score>  (11) 
2.6049046516418457

$$$$
VABQPFGHDPQYNW-UHFFFAOYSA-N
     RDKit          3D

 25 25  0  0  0  0  0  0  0  0999 V2000
  122.6498  124.4887   84.7773 N   0  0  0  0  0  0  0  0  0  0  0  0
  122.0258  123.5317   85.5286 C   0  0  0  0  0  0  0  0  0  0  0  0
  120.8135  123.3747   85.4541 O   0  0  0  0  0  0  0  0  0  0  0  0
  122.8729  122.6680   86.3944 C   0  0  0  0  0  0  0  0  0  0  0  0
  122.3404  122.2256   87.6101 C   0  0  0  0  0  0  0  0  0  0  0  0
  123.1012  121.4320   88.4749 C   0  0  0  0  0  0  0  0  0  0  0  0
  124.4029  121.0690   88.1272 C   0  0  0  0  0  0  0  0  0  0  0  0
  125.2474  120.2969   88.8849 O   0  0  0  0  0  0  0  0  0  0  0  0
  124.9407  120.0687   90.2642 C   0  0  0  0  0  0  0  0  0  0  0  0
  125.9203  120.7198   91.2315 C   0  0  0  0  0  0  0  0  0  0  0  0
  125.3050  121.5137   92.1325 F   0  0  0  0  0  0  0  0  0  0  0  0
  126.5784  119.7626   91.9321 F   0  0  0  0  0  0  0  0  0  0  0  0
  126.8529  121.4537   90.5871 F   0  0  0  0  0  0  0  0  0  0  0  0
  124.9338  121.4811   86.8845 C   0  0  0  0  0  0  0  0  0  0  0  0
  126.2871  121.2386   86.5759 N   0  0  0  0  0  0  0  0  0  0  0  0
  124.1817  122.3158   86.0491 C   0  0  0  0  0  0  0  0  0  0  0  0
  123.6698  124.6137   84.8463 H   0  0  0  0  0  0  0  0  0  0  0  0
  122.0997  125.0846   84.1422 H   0  0  0  0  0  0  0  0  0  0  0  0
  121.3135  122.5046   87.8886 H   0  0  0  0  0  0  0  0  0  0  0  0
  122.6729  121.0936   89.4300 H   0  0  0  0  0  0  0  0  0  0  0  0
  123.9365  120.4696   90.4664 H   0  0  0  0  0  0  0  0  0  0  0  0
  125.0039  118.9830   90.4293 H   0  0  0  0  0  0  0  0  0  0  0  0
  126.6706  121.5404   85.6689 H   0  0  0  0  0  0  0  0  0  0  0  0
  126.8928  120.7594   87.2574 H   0  0  0  0  0  0  0  0  0  0  0  0
  124.6225  122.6966   85.1160 H   0  0  0  0  0  0  0  0  0  0  0  0
  1  2  1  0
  2  3  2  0
  2  4  1  0
  4  5  2  0
  5  6  1  0
  6  7  2  0
  7  8  1  0
  8  9  1  0
  9 10  1  0
 10 11  1  0
 10 12  1  0
 10 13  1  0
  7 14  1  0
 14 15  1  0
 14 16  2  0
 16  4  1  0
  1 17  1  0
  1 18  1  0
  5 19  1  0
  6 20  1  0
  9 21  1  0
  9 22  1  0
 15 23  1  0
 15 24  1  0
 16 25  1  0
M  END
>  <loss>  (12) 
0.8637966513633728

>  <score>  (12) 
2.520878314971924

$$$$
VABQPFGHDPQYNW-UHFFFAOYSA-N
     RDKit          3D

 25 25  0  0  0  0  0  0  0  0999 V2000
  122.1365  123.9236   84.6396 N   0  0  0  0  0  0  0  0  0  0  0  0
  121.5112  123.3057   85.6869 C   0  0  0  0  0  0  0  0  0  0  0  0
  120.2913  123.3371   85.7893 O   0  0  0  0  0  0  0  0  0  0  0  0
  122.3572  122.5632   86.6596 C   0  0  0  0  0  0  0  0  0  0  0  0
  123.7310  122.4765   86.4099 C   0  0  0  0  0  0  0  0  0  0  0  0
  124.5701  121.7697   87.2775 C   0  0  0  0  0  0  0  0  0  0  0  0
  124.0410  121.1462   88.4081 C   0  0  0  0  0  0  0  0  0  0  0  0
  124.7556  120.4269   89.3330 O   0  0  0  0  0  0  0  0  0  0  0  0
  124.8306  120.8985   90.6823 C   0  0  0  0  0  0  0  0  0  0  0  0
  126.2528  121.0739   91.1979 C   0  0  0  0  0  0  0  0  0  0  0  0
  126.6854  122.3479   91.0952 F   0  0  0  0  0  0  0  0  0  0  0  0
  126.3088  120.7420   92.5120 F   0  0  0  0  0  0  0  0  0  0  0  0
  127.1270  120.2758   90.5479 F   0  0  0  0  0  0  0  0  0  0  0  0
  122.6606  121.2609   88.6864 C   0  0  0  0  0  0  0  0  0  0  0  0
  122.0876  120.5294   89.7457 N   0  0  0  0  0  0  0  0  0  0  0  0
  121.8225  121.9288   87.7856 C   0  0  0  0  0  0  0  0  0  0  0  0
  123.1631  123.8920   84.5615 H   0  0  0  0  0  0  0  0  0  0  0  0
  121.5810  124.4206   83.9288 H   0  0  0  0  0  0  0  0  0  0  0  0
  124.1554  122.9691   85.5226 H   0  0  0  0  0  0  0  0  0  0  0  0
  125.6481  121.7053   87.0683 H   0  0  0  0  0  0  0  0  0  0  0  0
  124.3199  121.8712   90.7378 H   0  0  0  0  0  0  0  0  0  0  0  0
  124.3545  120.1342   91.3140 H   0  0  0  0  0  0  0  0  0  0  0  0
  121.0809  120.6156   89.9457 H   0  0  0  0  0  0  0  0  0  0  0  0
  122.6754  119.9085   90.3201 H   0  0  0  0  0  0  0  0  0  0  0  0
  120.7374  121.9548   87.9643 H   0  0  0  0  0  0  0  0  0  0  0  0
  1  2  1  0
  2  3  2  0
  2  4  1  0
  4  5  2  0
  5  6  1  0
  6  7  2  0
  7  8  1  0
  8  9  1  0
  9 10  1  0
 10 11  1  0
 10 12  1  0
 10 13  1  0
  7 14  1  0
 14 15  1  0
 14 16  2  0
 16  4  1  0
  1 17  1  0
  1 18  1  0
  5 19  1  0
  6 20  1  0
  9 21  1  0
  9 22  1  0
 15 23  1  0
 15 24  1  0
 16 25  1  0
M  END
>  <loss>  (13) 
0.8724514842033386

>  <score>  (13) 
2.5331058502197266

$$$$
VABQPFGHDPQYNW-UHFFFAOYSA-N
     RDKit          3D

 25 25  0  0  0  0  0  0  0  0999 V2000
  122.9894  124.3073   84.6537 N   0  0  0  0  0  0  0  0  0  0  0  0
  122.2107  123.4883   85.4243 C   0  0  0  0  0  0  0  0  0  0  0  0
  120.9927  123.4887   85.3036 O   0  0  0  0  0  0  0  0  0  0  0  0
  122.8966  122.6392   86.4344 C   0  0  0  0  0  0  0  0  0  0  0  0
  124.2604  122.3299   86.3411 C   0  0  0  0  0  0  0  0  0  0  0  0
  124.8527  121.5048   87.2974 C   0  0  0  0  0  0  0  0  0  0  0  0
  124.0775  120.9939   88.3378 C   0  0  0  0  0  0  0  0  0  0  0  0
  124.6740  120.1744   89.2637 O   0  0  0  0  0  0  0  0  0  0  0  0
  126.0832  120.4665   89.3341 C   0  0  0  0  0  0  0  0  0  0  0  0
  126.5306  120.5540   90.7830 C   0  0  0  0  0  0  0  0  0  0  0  0
  125.4940  120.4032   91.6372 F   0  0  0  0  0  0  0  0  0  0  0  0
  127.4549  119.6128   91.0789 F   0  0  0  0  0  0  0  0  0  0  0  0
  127.0874  121.7620   91.0369 F   0  0  0  0  0  0  0  0  0  0  0  0
  122.7270  121.3468   88.4894 C   0  0  0  0  0  0  0  0  0  0  0  0
  121.9378  120.7548   89.4909 N   0  0  0  0  0  0  0  0  0  0  0  0
  122.1318  122.1211   87.4916 C   0  0  0  0  0  0  0  0  0  0  0  0
  124.0134  124.2980   84.7645 H   0  0  0  0  0  0  0  0  0  0  0  0
  122.5518  124.9333   83.9627 H   0  0  0  0  0  0  0  0  0  0  0  0
  124.8626  122.7369   85.5155 H   0  0  0  0  0  0  0  0  0  0  0  0
  125.9229  121.2592   87.2313 H   0  0  0  0  0  0  0  0  0  0  0  0
  126.6453  119.6678   88.8282 H   0  0  0  0  0  0  0  0  0  0  0  0
  126.2741  121.4313   88.8414 H   0  0  0  0  0  0  0  0  0  0  0  0
  120.9483  121.0222   89.5921 H   0  0  0  0  0  0  0  0  0  0  0  0
  122.3491  120.0538   90.1236 H   0  0  0  0  0  0  0  0  0  0  0  0
  121.0521  122.3274   87.5343 H   0  0  0  0  0  0  0  0  0  0  0  0
  1  2  1  0
  2  3  2  0
  2  4  1  0
  4  5  2  0
  5  6  1  0
  6  7  2  0
  7  8  1  0
  8  9  1  0
  9 10  1  0
 10 11  1  0
 10 12  1  0
 10 13  1  0
  7 14  1  0
 14 15  1  0
 14 16  2  0
 16  4  1  0
  1 17  1  0
  1 18  1  0
  5 19  1  0
  6 20  1  0
  9 21  1  0
  9 22  1  0
 15 23  1  0
 15 24  1  0
 16 25  1  0
M  END
>  <loss>  (14) 
0.8623147010803223

>  <score>  (14) 
2.4527499675750732

$$$$
VABQPFGHDPQYNW-UHFFFAOYSA-N
     RDKit          3D

 25 25  0  0  0  0  0  0  0  0999 V2000
  122.6286  124.4816   84.7699 N   0  0  0  0  0  0  0  0  0  0  0  0
  122.0056  123.5243   85.5215 C   0  0  0  0  0  0  0  0  0  0  0  0
  120.7935  123.3649   85.4493 O   0  0  0  0  0  0  0  0  0  0  0  0
  122.8542  122.6629   86.3873 C   0  0  0  0  0  0  0  0  0  0  0  0
  122.3230  122.2228   87.6049 C   0  0  0  0  0  0  0  0  0  0  0  0
  123.0876  121.4344   88.4695 C   0  0  0  0  0  0  0  0  0  0  0  0
  124.3916  121.0783   88.1188 C   0  0  0  0  0  0  0  0  0  0  0  0
  125.2307  120.3099   88.8893 O   0  0  0  0  0  0  0  0  0  0  0  0
  124.8508  120.1049   90.2550 C   0  0  0  0  0  0  0  0  0  0  0  0
  125.9291  120.6306   91.1901 C   0  0  0  0  0  0  0  0  0  0  0  0
  125.4074  121.3332   92.2188 F   0  0  0  0  0  0  0  0  0  0  0  0
  126.8081  121.4271   90.5421 F   0  0  0  0  0  0  0  0  0  0  0  0
  126.6337  119.6016   91.7196 F   0  0  0  0  0  0  0  0  0  0  0  0
  124.9197  121.4810   86.8735 C   0  0  0  0  0  0  0  0  0  0  0  0
  126.2726  121.2400   86.5648 N   0  0  0  0  0  0  0  0  0  0  0  0
  124.1630  122.3112   86.0383 C   0  0  0  0  0  0  0  0  0  0  0  0
  123.6486  124.6070   84.8384 H   0  0  0  0  0  0  0  0  0  0  0  0
  122.0779  125.0772   84.1352 H   0  0  0  0  0  0  0  0  0  0  0  0
  121.2956  122.4995   87.8838 H   0  0  0  0  0  0  0  0  0  0  0  0
  122.6625  121.0948   89.4255 H   0  0  0  0  0  0  0  0  0  0  0  0
  123.9086  120.6370   90.4529 H   0  0  0  0  0  0  0  0  0  0  0  0
  124.7205  119.0269   90.4311 H   0  0  0  0  0  0  0  0  0  0  0  0
  126.6538  121.5356   85.6548 H   0  0  0  0  0  0  0  0  0  0  0  0
  126.8808  120.7680   87.2491 H   0  0  0  0  0  0  0  0  0  0  0  0
  124.5997  122.6893   85.1021 H   0  0  0  0  0  0  0  0  0  0  0  0
  1  2  1  0
  2  3  2  0
  2  4  1  0
  4  5  2  0
  5  6  1  0
  6  7  2  0
  7  8  1  0
  8  9  1  0
  9 10  1  0
 10 11  1  0
 10 12  1  0
 10 13  1  0
  7 14  1  0
 14 15  1  0
 14 16  2  0
 16  4  1  0
  1 17  1  0
  1 18  1  0
  5 19  1  0
  6 20  1  0
  9 21  1  0
  9 22  1  0
 15 23  1  0
 15 24  1  0
 16 25  1  0
M  END
>  <loss>  (15) 
0.8710238933563232

>  <score>  (15) 
2.489795446395874

$$$$
VABQPFGHDPQYNW-UHFFFAOYSA-N
     RDKit          3D

 25 25  0  0  0  0  0  0  0  0999 V2000
  126.9129  122.5864   86.0813 N   0  0  0  0  0  0  0  0  0  0  0  0
  125.6622  122.3605   85.5754 C   0  0  0  0  0  0  0  0  0  0  0  0
  125.4578  122.4073   84.3695 O   0  0  0  0  0  0  0  0  0  0  0  0
  124.5651  122.1023   86.5456 C   0  0  0  0  0  0  0  0  0  0  0  0
  124.7982  121.4874   87.7833 C   0  0  0  0  0  0  0  0  0  0  0  0
  123.7317  121.2394   88.6476 C   0  0  0  0  0  0  0  0  0  0  0  0
  122.4410  121.6058   88.2679 C   0  0  0  0  0  0  0  0  0  0  0  0
  121.4018  121.3440   89.1258 O   0  0  0  0  0  0  0  0  0  0  0  0
  121.0958  122.5250   89.8923 C   0  0  0  0  0  0  0  0  0  0  0  0
  121.2149  122.2335   91.3782 C   0  0  0  0  0  0  0  0  0  0  0  0
  120.4305  121.1973   91.7497 F   0  0  0  0  0  0  0  0  0  0  0  0
  122.4868  121.9406   91.7302 F   0  0  0  0  0  0  0  0  0  0  0  0
  120.8308  123.3088   92.1062 F   0  0  0  0  0  0  0  0  0  0  0  0
  122.1944  122.2851   87.0641 C   0  0  0  0  0  0  0  0  0  0  0  0
  120.8796  122.5688   86.6555 N   0  0  0  0  0  0  0  0  0  0  0  0
  123.2601  122.4702   86.1811 C   0  0  0  0  0  0  0  0  0  0  0  0
  127.0724  122.5443   87.0980 H   0  0  0  0  0  0  0  0  0  0  0  0
  127.6950  122.7986   85.4456 H   0  0  0  0  0  0  0  0  0  0  0  0
  125.8200  121.2008   88.0726 H   0  0  0  0  0  0  0  0  0  0  0  0
  123.9075  120.7586   89.6212 H   0  0  0  0  0  0  0  0  0  0  0  0
  121.7997  123.3259   89.6219 H   0  0  0  0  0  0  0  0  0  0  0  0
  120.0652  122.8391   89.6704 H   0  0  0  0  0  0  0  0  0  0  0  0
  120.7118  123.0678   85.7702 H   0  0  0  0  0  0  0  0  0  0  0  0
  120.0841  122.2775   87.2413 H   0  0  0  0  0  0  0  0  0  0  0  0
  123.0753  122.9088   85.1894 H   0  0  0  0  0  0  0  0  0  0  0  0
  1  2  1  0
  2  3  2  0
  2  4  1  0
  4  5  2  0
  5  6  1  0
  6  7  2  0
  7  8  1  0
  8  9  1  0
  9 10  1  0
 10 11  1  0
 10 12  1  0
 10 13  1  0
  7 14  1  0
 14 15  1  0
 14 16  2  0
 16  4  1  0
  1 17  1  0
  1 18  1  0
  5 19  1  0
  6 20  1  0
  9 21  1  0
  9 22  1  0
 15 23  1  0
 15 24  1  0
 16 25  1  0
M  END
>  <loss>  (16) 
1.0585358142852783

>  <score>  (16) 
-2.7641255855560303

$$$$
VABQPFGHDPQYNW-UHFFFAOYSA-N
     RDKit          3D

 25 25  0  0  0  0  0  0  0  0999 V2000
  126.1171  122.1081   84.9895 N   0  0  0  0  0  0  0  0  0  0  0  0
  124.9305  122.7295   85.2662 C   0  0  0  0  0  0  0  0  0  0  0  0
  124.5063  123.6185   84.5394 O   0  0  0  0  0  0  0  0  0  0  0  0
  124.1650  122.2540   86.4492 C   0  0  0  0  0  0  0  0  0  0  0  0
  122.8412  122.6495   86.6848 C   0  0  0  0  0  0  0  0  0  0  0  0
  122.1545  122.1521   87.7926 C   0  0  0  0  0  0  0  0  0  0  0  0
  122.7951  121.2630   88.6550 C   0  0  0  0  0  0  0  0  0  0  0  0
  122.0994  120.7750   89.7330 O   0  0  0  0  0  0  0  0  0  0  0  0
  122.7866  121.1188   90.9519 C   0  0  0  0  0  0  0  0  0  0  0  0
  121.8623  121.8930   91.8755 C   0  0  0  0  0  0  0  0  0  0  0  0
  120.9199  122.5738   91.1852 F   0  0  0  0  0  0  0  0  0  0  0  0
  122.5631  122.7954   92.6025 F   0  0  0  0  0  0  0  0  0  0  0  0
  121.2311  121.0774   92.7495 F   0  0  0  0  0  0  0  0  0  0  0  0
  124.1420  120.9088   88.4774 C   0  0  0  0  0  0  0  0  0  0  0  0
  124.7469  119.9447   89.3027 N   0  0  0  0  0  0  0  0  0  0  0  0
  124.7971  121.3625   87.3308 C   0  0  0  0  0  0  0  0  0  0  0  0
  126.4640  121.3614   85.6083 H   0  0  0  0  0  0  0  0  0  0  0  0
  126.6637  122.3869   84.1622 H   0  0  0  0  0  0  0  0  0  0  0  0
  122.3448  123.3505   85.9977 H   0  0  0  0  0  0  0  0  0  0  0  0
  121.1157  122.4589   87.9843 H   0  0  0  0  0  0  0  0  0  0  0  0
  123.1154  120.1978   91.4557 H   0  0  0  0  0  0  0  0  0  0  0  0
  123.6573  121.7453   90.7083 H   0  0  0  0  0  0  0  0  0  0  0  0
  125.7358  119.6937   89.1620 H   0  0  0  0  0  0  0  0  0  0  0  0
  124.2010  119.4893   90.0481 H   0  0  0  0  0  0  0  0  0  0  0  0
  125.8194  121.0179   87.1158 H   0  0  0  0  0  0  0  0  0  0  0  0
  1  2  1  0
  2  3  2  0
  2  4  1  0
  4  5  2  0
  5  6  1  0
  6  7  2  0
  7  8  1  0
  8  9  1  0
  9 10  1  0
 10 11  1  0
 10 12  1  0
 10 13  1  0
  7 14  1  0
 14 15  1  0
 14 16  2  0
 16  4  1  0
  1 17  1  0
  1 18  1  0
  5 19  1  0
  6 20  1  0
  9 21  1  0
  9 22  1  0
 15 23  1  0
 15 24  1  0
 16 25  1  0
M  END
>  <loss>  (17) 
1.0376489162445068

>  <score>  (17) 
-10.197108268737793

$$$$
VABQPFGHDPQYNW-UHFFFAOYSA-N
     RDKit          3D

 25 25  0  0  0  0  0  0  0  0999 V2000
  126.4016  121.3383   85.2576 N   0  0  0  0  0  0  0  0  0  0  0  0
  125.4860  122.3349   85.4565 C   0  0  0  0  0  0  0  0  0  0  0  0
  125.5639  123.3881   84.8378 O   0  0  0  0  0  0  0  0  0  0  0  0
  124.4298  122.1035   86.4776 C   0  0  0  0  0  0  0  0  0  0  0  0
  124.7120  121.5125   87.7167 C   0  0  0  0  0  0  0  0  0  0  0  0
  123.6819  121.2890   88.6305 C   0  0  0  0  0  0  0  0  0  0  0  0
  122.3783  121.6557   88.2984 C   0  0  0  0  0  0  0  0  0  0  0  0
  121.3751  121.4180   89.2049 O   0  0  0  0  0  0  0  0  0  0  0  0
  121.9461  121.1195   90.4937 C   0  0  0  0  0  0  0  0  0  0  0  0
  121.4136  122.0822   91.5409 C   0  0  0  0  0  0  0  0  0  0  0  0
  120.6827  123.0735   90.9842 F   0  0  0  0  0  0  0  0  0  0  0  0
  120.6371  121.4523   92.4508 F   0  0  0  0  0  0  0  0  0  0  0  0
  122.4340  122.6651   92.2138 F   0  0  0  0  0  0  0  0  0  0  0  0
  122.0844  122.3118   87.0924 C   0  0  0  0  0  0  0  0  0  0  0  0
  120.7549  122.5954   86.7342 N   0  0  0  0  0  0  0  0  0  0  0  0
  123.1125  122.4721   86.1613 C   0  0  0  0  0  0  0  0  0  0  0  0
  126.3256  120.4565   85.7843 H   0  0  0  0  0  0  0  0  0  0  0  0
  127.1671  121.4698   84.5810 H   0  0  0  0  0  0  0  0  0  0  0  0
  125.7437  121.2254   87.9682 H   0  0  0  0  0  0  0  0  0  0  0  0
  123.8964  120.8270   89.6055 H   0  0  0  0  0  0  0  0  0  0  0  0
  121.6814  120.0905   90.7785 H   0  0  0  0  0  0  0  0  0  0  0  0
  123.0395  121.2240   90.4340 H   0  0  0  0  0  0  0  0  0  0  0  0
  120.5522  123.0773   85.8467 H   0  0  0  0  0  0  0  0  0  0  0  0
  119.9835  122.3212   87.3592 H   0  0  0  0  0  0  0  0  0  0  0  0
  122.8880  122.8915   85.1695 H   0  0  0  0  0  0  0  0  0  0  0  0
  1  2  1  0
  2  3  2  0
  2  4  1  0
  4  5  2  0
  5  6  1  0
  6  7  2  0
  7  8  1  0
  8  9  1  0
  9 10  1  0
 10 11  1  0
 10 12  1  0
 10 13  1  0
  7 14  1  0
 14 15  1  0
 14 16  2  0
 16  4  1  0
  1 17  1  0
  1 18  1  0
  5 19  1  0
  6 20  1  0
  9 21  1  0
  9 22  1  0
 15 23  1  0
 15 24  1  0
 16 25  1  0
M  END
>  <loss>  (18) 
1.052533507347107

>  <score>  (18) 
-11.432713508605957

$$$$
VABQPFGHDPQYNW-UHFFFAOYSA-N
     RDKit          3D

 25 25  0  0  0  0  0  0  0  0999 V2000
  126.1262  121.8939   85.0011 N   0  0  0  0  0  0  0  0  0  0  0  0
  125.0271  122.6487   85.3059 C   0  0  0  0  0  0  0  0  0  0  0  0
  124.7260  123.6185   84.6224 O   0  0  0  0  0  0  0  0  0  0  0  0
  124.1980  122.2194   86.4635 C   0  0  0  0  0  0  0  0  0  0  0  0
  122.8744  122.6498   86.6287 C   0  0  0  0  0  0  0  0  0  0  0  0
  122.1268  122.1951   87.7153 C   0  0  0  0  0  0  0  0  0  0  0  0
  122.7069  121.3136   88.6269 C   0  0  0  0  0  0  0  0  0  0  0  0
  121.9519  120.8677   89.6831 O   0  0  0  0  0  0  0  0  0  0  0  0
  122.6613  121.0914   90.9171 C   0  0  0  0  0  0  0  0  0  0  0  0
  121.8238  121.9401   91.8579 C   0  0  0  0  0  0  0  0  0  0  0  0
  122.5899  122.5871   92.7648 F   0  0  0  0  0  0  0  0  0  0  0  0
  120.9489  121.1673   92.5442 F   0  0  0  0  0  0  0  0  0  0  0  0
  121.1011  122.8650   91.1871 F   0  0  0  0  0  0  0  0  0  0  0  0
  124.0519  120.9254   88.5196 C   0  0  0  0  0  0  0  0  0  0  0  0
  124.5961  119.9687   89.3943 N   0  0  0  0  0  0  0  0  0  0  0  0
  124.7686  121.3362   87.3938 C   0  0  0  0  0  0  0  0  0  0  0  0
  126.3697  121.0800   85.5835 H   0  0  0  0  0  0  0  0  0  0  0  0
  126.7104  122.1393   84.1890 H   0  0  0  0  0  0  0  0  0  0  0  0
  122.4260  123.3445   85.9032 H   0  0  0  0  0  0  0  0  0  0  0  0
  121.0878  122.5294   87.8519 H   0  0  0  0  0  0  0  0  0  0  0  0
  122.8747  120.1234   91.3940 H   0  0  0  0  0  0  0  0  0  0  0  0
  123.6018  121.6188   90.6996 H   0  0  0  0  0  0  0  0  0  0  0  0
  125.5844  119.6925   89.3050 H   0  0  0  0  0  0  0  0  0  0  0  0
  124.0066  119.5441   90.1244 H   0  0  0  0  0  0  0  0  0  0  0  0
  125.7913  120.9638   87.2342 H   0  0  0  0  0  0  0  0  0  0  0  0
  1  2  1  0
  2  3  2  0
  2  4  1  0
  4  5  2  0
  5  6  1  0
  6  7  2  0
  7  8  1  0
  8  9  1  0
  9 10  1  0
 10 11  1  0
 10 12  1  0
 10 13  1  0
  7 14  1  0
 14 15  1  0
 14 16  2  0
 16  4  1  0
  1 17  1  0
  1 18  1  0
  5 19  1  0
  6 20  1  0
  9 21  1  0
  9 22  1  0
 15 23  1  0
 15 24  1  0
 16 25  1  0
M  END
>  <loss>  (19) 
1.0363785028457642

>  <score>  (19) 
-12.867037773132324

$$$$
VABQPFGHDPQYNW-UHFFFAOYSA-N
     RDKit          3D

 25 25  0  0  0  0  0  0  0  0999 V2000
  125.6436  123.0871   84.6960 N   0  0  0  0  0  0  0  0  0  0  0  0
  124.3444  123.1506   85.1174 C   0  0  0  0  0  0  0  0  0  0  0  0
  123.5093  123.7678   84.4683 O   0  0  0  0  0  0  0  0  0  0  0  0
  123.9796  122.4104   86.3552 C   0  0  0  0  0  0  0  0  0  0  0  0
  122.6972  122.5958   86.8828 C   0  0  0  0  0  0  0  0  0  0  0  0
  122.3089  121.9446   88.0583 C   0  0  0  0  0  0  0  0  0  0  0  0
  123.2012  121.0962   88.7148 C   0  0  0  0  0  0  0  0  0  0  0  0
  122.9419  120.4017   89.8697 O   0  0  0  0  0  0  0  0  0  0  0  0
  122.1497  121.0133   90.8928 C   0  0  0  0  0  0  0  0  0  0  0  0
  122.9400  121.4097   92.1328 C   0  0  0  0  0  0  0  0  0  0  0  0
  123.2360  122.7260   92.1569 F   0  0  0  0  0  0  0  0  0  0  0  0
  122.2097  121.1484   93.2456 F   0  0  0  0  0  0  0  0  0  0  0  0
  124.0925  120.7142   92.2402 F   0  0  0  0  0  0  0  0  0  0  0  0
  124.4849  120.8753   88.1675 C   0  0  0  0  0  0  0  0  0  0  0  0
  125.4428  120.1307   88.8841 N   0  0  0  0  0  0  0  0  0  0  0  0
  124.8800  121.5701   87.0180 C   0  0  0  0  0  0  0  0  0  0  0  0
  126.3393  122.5656   85.2484 H   0  0  0  0  0  0  0  0  0  0  0  0
  125.9267  123.5607   83.8263 H   0  0  0  0  0  0  0  0  0  0  0  0
  121.9873  123.2601   86.3682 H   0  0  0  0  0  0  0  0  0  0  0  0
  121.2992  122.1016   88.4655 H   0  0  0  0  0  0  0  0  0  0  0  0
  121.6838  121.9181   90.4754 H   0  0  0  0  0  0  0  0  0  0  0  0
  121.4093  120.2652   91.2125 H   0  0  0  0  0  0  0  0  0  0  0  0
  126.3776  119.9717   88.4819 H   0  0  0  0  0  0  0  0  0  0  0  0
  125.2081  119.7454   89.8100 H   0  0  0  0  0  0  0  0  0  0  0  0
  125.9043  121.4544   86.6340 H   0  0  0  0  0  0  0  0  0  0  0  0
  1  2  1  0
  2  3  2  0
  2  4  1  0
  4  5  2  0
  5  6  1  0
  6  7  2  0
  7  8  1  0
  8  9  1  0
  9 10  1  0
 10 11  1  0
 10 12  1  0
 10 13  1  0
  7 14  1  0
 14 15  1  0
 14 16  2  0
 16  4  1  0
  1 17  1  0
  1 18  1  0
  5 19  1  0
  6 20  1  0
  9 21  1  0
  9 22  1  0
 15 23  1  0
 15 24  1  0
 16 25  1  0
M  END
>  <loss>  (20) 
1.0562622547149658

>  <score>  (20) 
-13.157858848571777

$$$$
VABQPFGHDPQYNW-UHFFFAOYSA-N
     RDKit          3D

 25 25  0  0  0  0  0  0  0  0999 V2000
  125.7566  122.8180   84.6960 N   0  0  0  0  0  0  0  0  0  0  0  0
  124.4858  123.0542   85.1418 C   0  0  0  0  0  0  0  0  0  0  0  0
  123.7315  123.7890   84.5167 O   0  0  0  0  0  0  0  0  0  0  0  0
  124.0449  122.3555   86.3784 C   0  0  0  0  0  0  0  0  0  0  0  0
  122.7392  122.5754   86.8317 C   0  0  0  0  0  0  0  0  0  0  0  0
  122.2824  121.9660   88.0037 C   0  0  0  0  0  0  0  0  0  0  0  0
  123.1311  121.1282   88.7303 C   0  0  0  0  0  0  0  0  0  0  0  0
  122.7890  120.4793   89.8923 O   0  0  0  0  0  0  0  0  0  0  0  0
  121.9077  121.1701   90.7854 C   0  0  0  0  0  0  0  0  0  0  0  0
  122.6204  121.4929   92.0897 C   0  0  0  0  0  0  0  0  0  0  0  0
  123.8037  120.8499   92.1917 F   0  0  0  0  0  0  0  0  0  0  0  0
  121.8703  121.1624   93.1645 F   0  0  0  0  0  0  0  0  0  0  0  0
  122.8741  122.8214   92.1697 F   0  0  0  0  0  0  0  0  0  0  0  0
  124.4347  120.8663   88.2571 C   0  0  0  0  0  0  0  0  0  0  0  0
  125.3412  120.1302   89.0447 N   0  0  0  0  0  0  0  0  0  0  0  0
  124.8975  121.5207   87.1096 C   0  0  0  0  0  0  0  0  0  0  0  0
  126.3827  122.1983   85.2297 H   0  0  0  0  0  0  0  0  0  0  0  0
  126.0878  123.2599   83.8266 H   0  0  0  0  0  0  0  0  0  0  0  0
  122.0670  123.2330   86.2609 H   0  0  0  0  0  0  0  0  0  0  0  0
  121.2552  122.1463   88.3534 H   0  0  0  0  0  0  0  0  0  0  0  0
  121.5741  122.1060   90.3135 H   0  0  0  0  0  0  0  0  0  0  0  0
  121.0424  120.5263   91.0016 H   0  0  0  0  0  0  0  0  0  0  0  0
  126.2916  119.9414   88.6955 H   0  0  0  0  0  0  0  0  0  0  0  0
  125.0536  119.7807   89.9700 H   0  0  0  0  0  0  0  0  0  0  0  0
  125.9375  121.3781   86.7807 H   0  0  0  0  0  0  0  0  0  0  0  0
  1  2  1  0
  2  3  2  0
  2  4  1  0
  4  5  2  0
  5  6  1  0
  6  7  2  0
  7  8  1  0
  8  9  1  0
  9 10  1  0
 10 11  1  0
 10 12  1  0
 10 13  1  0
  7 14  1  0
 14 15  1  0
 14 16  2  0
 16  4  1  0
  1 17  1  0
  1 18  1  0
  5 19  1  0
  6 20  1  0
  9 21  1  0
  9 22  1  0
 15 23  1  0
 15 24  1  0
 16 25  1  0
M  END
>  <loss>  (21) 
1.0451686382293701

>  <score>  (21) 
-13.655166625976562

$$$$
VABQPFGHDPQYNW-UHFFFAOYSA-N
     RDKit          3D

 25 25  0  0  0  0  0  0  0  0999 V2000
  125.9126  122.5003   84.7922 N   0  0  0  0  0  0  0  0  0  0  0  0
  124.6773  122.9141   85.2077 C   0  0  0  0  0  0  0  0  0  0  0  0
  124.0522  123.7486   84.5654 O   0  0  0  0  0  0  0  0  0  0  0  0
  124.1095  122.2842   86.4299 C   0  0  0  0  0  0  0  0  0  0  0  0
  122.7854  122.5792   86.7716 C   0  0  0  0  0  0  0  0  0  0  0  0
  122.2082  122.0349   87.9236 C   0  0  0  0  0  0  0  0  0  0  0  0
  122.9514  121.1843   88.7428 C   0  0  0  0  0  0  0  0  0  0  0  0
  122.5016  120.5879   89.8941 O   0  0  0  0  0  0  0  0  0  0  0  0
  121.6320  121.3158   90.7673 C   0  0  0  0  0  0  0  0  0  0  0  0
  122.2925  121.7656   92.0637 C   0  0  0  0  0  0  0  0  0  0  0  0
  122.5513  123.0899   92.0785 F   0  0  0  0  0  0  0  0  0  0  0  0
  121.4683  121.5121   93.1108 F   0  0  0  0  0  0  0  0  0  0  0  0
  123.4473  121.1056   92.2969 F   0  0  0  0  0  0  0  0  0  0  0  0
  124.2770  120.8524   88.3840 C   0  0  0  0  0  0  0  0  0  0  0  0
  125.0844  120.1057   89.2649 N   0  0  0  0  0  0  0  0  0  0  0  0
  124.8606  121.4416   87.2559 C   0  0  0  0  0  0  0  0  0  0  0  0
  126.4313  121.7980   85.3387 H   0  0  0  0  0  0  0  0  0  0  0  0
  126.3244  122.8910   83.9327 H   0  0  0  0  0  0  0  0  0  0  0  0
  122.1924  123.2457   86.1281 H   0  0  0  0  0  0  0  0  0  0  0  0
  121.1673  122.2776   88.1839 H   0  0  0  0  0  0  0  0  0  0  0  0
  121.2737  122.2085   90.2336 H   0  0  0  0  0  0  0  0  0  0  0  0
  120.8156  120.6332   91.0457 H   0  0  0  0  0  0  0  0  0  0  0  0
  126.0503  119.8656   88.9998 H   0  0  0  0  0  0  0  0  0  0  0  0
  124.7086  119.7999   90.1738 H   0  0  0  0  0  0  0  0  0  0  0  0
  125.9156  121.2408   87.0179 H   0  0  0  0  0  0  0  0  0  0  0  0
  1  2  1  0
  2  3  2  0
  2  4  1  0
  4  5  2  0
  5  6  1  0
  6  7  2  0
  7  8  1  0
  8  9  1  0
  9 10  1  0
 10 11  1  0
 10 12  1  0
 10 13  1  0
  7 14  1  0
 14 15  1  0
 14 16  2  0
 16  4  1  0
  1 17  1  0
  1 18  1  0
  5 19  1  0
  6 20  1  0
  9 21  1  0
  9 22  1  0
 15 23  1  0
 15 24  1  0
 16 25  1  0
M  END
>  <loss>  (22) 
1.0493522882461548

>  <score>  (22) 
-15.27425765991211

$$$$
VABQPFGHDPQYNW-UHFFFAOYSA-N
     RDKit          3D

 25 25  0  0  0  0  0  0  0  0999 V2000
  125.9123  122.5292   84.7694 N   0  0  0  0  0  0  0  0  0  0  0  0
  124.6704  122.9196   85.1873 C   0  0  0  0  0  0  0  0  0  0  0  0
  124.0247  123.7386   84.5456 O   0  0  0  0  0  0  0  0  0  0  0  0
  124.1213  122.2836   86.4145 C   0  0  0  0  0  0  0  0  0  0  0  0
  122.7932  122.5557   86.7619 C   0  0  0  0  0  0  0  0  0  0  0  0
  122.2355  122.0068   87.9201 C   0  0  0  0  0  0  0  0  0  0  0  0
  123.0049  121.1774   88.7389 C   0  0  0  0  0  0  0  0  0  0  0  0
  122.5612  120.5857   89.8969 O   0  0  0  0  0  0  0  0  0  0  0  0
  121.6257  121.3283   90.6874 C   0  0  0  0  0  0  0  0  0  0  0  0
  122.2503  121.7232   92.0168 C   0  0  0  0  0  0  0  0  0  0  0  0
  122.5806  123.0323   92.0509 F   0  0  0  0  0  0  0  0  0  0  0  0
  123.3638  121.0034   92.2796 F   0  0  0  0  0  0  0  0  0  0  0  0
  121.3788  121.4998   93.0297 F   0  0  0  0  0  0  0  0  0  0  0  0
  124.3311  120.8626   88.3730 C   0  0  0  0  0  0  0  0  0  0  0  0
  125.1567  120.1359   89.2529 N   0  0  0  0  0  0  0  0  0  0  0  0
  124.8944  121.4574   87.2380 C   0  0  0  0  0  0  0  0  0  0  0  0
  126.4467  121.8396   85.3168 H   0  0  0  0  0  0  0  0  0  0  0  0
  126.3134  122.9247   83.9071 H   0  0  0  0  0  0  0  0  0  0  0  0
  122.1833  123.2068   86.1184 H   0  0  0  0  0  0  0  0  0  0  0  0
  121.1914  122.2279   88.1863 H   0  0  0  0  0  0  0  0  0  0  0  0
  121.3306  122.2366   90.1415 H   0  0  0  0  0  0  0  0  0  0  0  0
  120.7437  120.6998   90.8803 H   0  0  0  0  0  0  0  0  0  0  0  0
  126.1240  119.9083   88.9818 H   0  0  0  0  0  0  0  0  0  0  0  0
  124.7931  119.8320   90.1675 H   0  0  0  0  0  0  0  0  0  0  0  0
  125.9508  121.2744   86.9920 H   0  0  0  0  0  0  0  0  0  0  0  0
  1  2  1  0
  2  3  2  0
  2  4  1  0
  4  5  2  0
  5  6  1  0
  6  7  2  0
  7  8  1  0
  8  9  1  0
  9 10  1  0
 10 11  1  0
 10 12  1  0
 10 13  1  0
  7 14  1  0
 14 15  1  0
 14 16  2  0
 16  4  1  0
  1 17  1  0
  1 18  1  0
  5 19  1  0
  6 20  1  0
  9 21  1  0
  9 22  1  0
 15 23  1  0
 15 24  1  0
 16 25  1  0
M  END
>  <loss>  (23) 
1.0435905456542969

>  <score>  (23) 
-15.932641983032227

$$$$
VABQPFGHDPQYNW-UHFFFAOYSA-N
     RDKit          3D

 25 25  0  0  0  0  0  0  0  0999 V2000
  125.8112  122.5708   84.7390 N   0  0  0  0  0  0  0  0  0  0  0  0
  124.5569  122.9496   85.1317 C   0  0  0  0  0  0  0  0  0  0  0  0
  123.8995  123.7242   84.4483 O   0  0  0  0  0  0  0  0  0  0  0  0
  124.0152  122.3521   86.3818 C   0  0  0  0  0  0  0  0  0  0  0  0
  122.7059  122.5843   86.8150 C   0  0  0  0  0  0  0  0  0  0  0  0
  122.2321  121.9829   87.9875 C   0  0  0  0  0  0  0  0  0  0  0  0
  123.0641  121.1484   88.7372 C   0  0  0  0  0  0  0  0  0  0  0  0
  122.7144  120.5023   89.8962 O   0  0  0  0  0  0  0  0  0  0  0  0
  121.8595  121.1568   90.8381 C   0  0  0  0  0  0  0  0  0  0  0  0
  122.5740  121.6363   92.0946 C   0  0  0  0  0  0  0  0  0  0  0  0
  123.6730  120.9032   92.3730 F   0  0  0  0  0  0  0  0  0  0  0  0
  121.7459  121.5247   93.1634 F   0  0  0  0  0  0  0  0  0  0  0  0
  122.9398  122.9326   92.0069 F   0  0  0  0  0  0  0  0  0  0  0  0
  124.3971  120.9384   88.3222 C   0  0  0  0  0  0  0  0  0  0  0  0
  125.2094  119.9983   88.9846 N   0  0  0  0  0  0  0  0  0  0  0  0
  124.8448  121.5050   87.1243 C   0  0  0  0  0  0  0  0  0  0  0  0
  126.3577  121.9188   85.3197 H   0  0  0  0  0  0  0  0  0  0  0  0
  126.2093  122.9376   83.8627 H   0  0  0  0  0  0  0  0  0  0  0  0
  122.0451  123.2425   86.2318 H   0  0  0  0  0  0  0  0  0  0  0  0
  121.2000  122.1685   88.3196 H   0  0  0  0  0  0  0  0  0  0  0  0
  121.4047  122.0285   90.3449 H   0  0  0  0  0  0  0  0  0  0  0  0
  121.1137  120.4149   91.1598 H   0  0  0  0  0  0  0  0  0  0  0  0
  126.1811  119.8498   88.6769 H   0  0  0  0  0  0  0  0  0  0  0  0
  124.8320  119.4590   89.7769 H   0  0  0  0  0  0  0  0  0  0  0  0
  125.8595  121.2822   86.7625 H   0  0  0  0  0  0  0  0  0  0  0  0
  1  2  1  0
  2  3  2  0
  2  4  1  0
  4  5  2  0
  5  6  1  0
  6  7  2  0
  7  8  1  0
  8  9  1  0
  9 10  1  0
 10 11  1  0
 10 12  1  0
 10 13  1  0
  7 14  1  0
 14 15  1  0
 14 16  2  0
 16  4  1  0
  1 17  1  0
  1 18  1  0
  5 19  1  0
  6 20  1  0
  9 21  1  0
  9 22  1  0
 15 23  1  0
 15 24  1  0
 16 25  1  0
M  END
>  <loss>  (24) 
1.0415955781936646

>  <score>  (24) 
-16.10022735595703

$$$$
VABQPFGHDPQYNW-UHFFFAOYSA-N
     RDKit          3D

 25 25  0  0  0  0  0  0  0  0999 V2000
  126.3538  123.3998   85.4711 N   0  0  0  0  0  0  0  0  0  0  0  0
  125.2817  122.5907   85.2123 C   0  0  0  0  0  0  0  0  0  0  0  0
  125.1001  122.1410   84.0881 O   0  0  0  0  0  0  0  0  0  0  0  0
  124.3858  122.2473   86.3493 C   0  0  0  0  0  0  0  0  0  0  0  0
  123.0541  122.6707   86.4058 C   0  0  0  0  0  0  0  0  0  0  0  0
  122.2413  122.3051   87.4859 C   0  0  0  0  0  0  0  0  0  0  0  0
  122.7544  121.5172   88.5187 C   0  0  0  0  0  0  0  0  0  0  0  0
  122.0583  121.0934   89.6227 O   0  0  0  0  0  0  0  0  0  0  0  0
  122.1484  121.8369   90.8415 C   0  0  0  0  0  0  0  0  0  0  0  0
  121.4731  121.1641   92.0292 C   0  0  0  0  0  0  0  0  0  0  0  0
  120.1265  121.2342   91.9630 F   0  0  0  0  0  0  0  0  0  0  0  0
  121.8430  121.7838   93.1780 F   0  0  0  0  0  0  0  0  0  0  0  0
  121.8251  119.8662   92.1448 F   0  0  0  0  0  0  0  0  0  0  0  0
  124.1075  121.1161   88.4829 C   0  0  0  0  0  0  0  0  0  0  0  0
  124.6081  120.2129   89.4400 N   0  0  0  0  0  0  0  0  0  0  0  0
  124.8966  121.4462   87.3762 C   0  0  0  0  0  0  0  0  0  0  0  0
  126.4995  123.7740   86.4196 H   0  0  0  0  0  0  0  0  0  0  0  0
  127.0155  123.6349   84.7176 H   0  0  0  0  0  0  0  0  0  0  0  0
  122.6432  123.2939   85.5978 H   0  0  0  0  0  0  0  0  0  0  0  0
  121.1942  122.6400   87.5212 H   0  0  0  0  0  0  0  0  0  0  0  0
  123.2123  121.9778   91.0829 H   0  0  0  0  0  0  0  0  0  0  0  0
  121.6223  122.7882   90.6734 H   0  0  0  0  0  0  0  0  0  0  0  0
  125.5963  119.9243   89.4084 H   0  0  0  0  0  0  0  0  0  0  0  0
  123.9861  119.8409   90.1718 H   0  0  0  0  0  0  0  0  0  0  0  0
  125.9290  121.0720   87.3126 H   0  0  0  0  0  0  0  0  0  0  0  0
  1  2  1  0
  2  3  2  0
  2  4  1  0
  4  5  2  0
  5  6  1  0
  6  7  2  0
  7  8  1  0
  8  9  1  0
  9 10  1  0
 10 11  1  0
 10 12  1  0
 10 13  1  0
  7 14  1  0
 14 15  1  0
 14 16  2  0
 16  4  1  0
  1 17  1  0
  1 18  1  0
  5 19  1  0
  6 20  1  0
  9 21  1  0
  9 22  1  0
 15 23  1  0
 15 24  1  0
 16 25  1  0
M  END
>  <loss>  (25) 
1.1271865367889404

>  <score>  (25) 
-19.145816802978516

$$$$
