VFRGNRZIYZQAOC-UHFFFAOYSA-N
     RDKit          3D

 30 30  0  0  0  0  0  0  0  0999 V2000
  127.1752  121.3780   88.4000 C   0  0  0  0  0  0  0  0  0  0  0  0
  125.8077  121.6035   87.8151 C   0  0  0  0  0  0  0  0  0  0  0  0
  125.6758  121.7941   86.4310 C   0  0  0  0  0  0  0  0  0  0  0  0
  124.4201  121.9949   85.8556 C   0  0  0  0  0  0  0  0  0  0  0  0
  123.2764  122.0194   86.6509 C   0  0  0  0  0  0  0  0  0  0  0  0
  122.0210  122.2104   86.0595 N   0  0  0  0  0  0  0  0  0  0  0  0
  121.0166  122.5859   86.7919 C   0  0  0  0  0  0  0  0  0  0  0  0
  121.0550  122.8388   88.1295 N   0  0  0  0  0  0  0  0  0  0  0  0
  119.7870  122.7670   86.2207 N   0  0  0  0  0  0  0  0  0  0  0  0
  119.5761  123.6503   85.3088 C   0  0  0  0  0  0  0  0  0  0  0  0
  120.4173  124.5602   84.7637 N   0  0  0  0  0  0  0  0  0  0  0  0
  118.3465  123.7857   84.7577 N   0  0  0  0  0  0  0  0  0  0  0  0
  123.3978  121.8095   88.0266 C   0  0  0  0  0  0  0  0  0  0  0  0
  124.6529  121.6017   88.6232 C   0  0  0  0  0  0  0  0  0  0  0  0
  124.7323  121.3856   90.1094 C   0  0  0  0  0  0  0  0  0  0  0  0
  127.1107  121.3886   89.4980 H   0  0  0  0  0  0  0  0  0  0  0  0
  127.5614  120.4041   88.0648 H   0  0  0  0  0  0  0  0  0  0  0  0
  127.8536  122.1764   88.0648 H   0  0  0  0  0  0  0  0  0  0  0  0
  126.5717  121.7852   85.7928 H   0  0  0  0  0  0  0  0  0  0  0  0
  124.3329  122.1345   84.7680 H   0  0  0  0  0  0  0  0  0  0  0  0
  120.2000  123.1330   88.6228 H   0  0  0  0  0  0  0  0  0  0  0  0
  121.9391  122.7360   88.6479 H   0  0  0  0  0  0  0  0  0  0  0  0
  120.0785  125.2016   84.0324 H   0  0  0  0  0  0  0  0  0  0  0  0
  121.3961  124.6112   85.0803 H   0  0  0  0  0  0  0  0  0  0  0  0
  118.1843  124.4946   84.0283 H   0  0  0  0  0  0  0  0  0  0  0  0
  117.5735  123.1798   85.0680 H   0  0  0  0  0  0  0  0  0  0  0  0
  122.4945  121.8069   88.6543 H   0  0  0  0  0  0  0  0  0  0  0  0
  124.3983  122.2949   90.6306 H   0  0  0  0  0  0  0  0  0  0  0  0
  124.0853  120.5422   90.3924 H   0  0  0  0  0  0  0  0  0  0  0  0
  125.7714  121.1615   90.3924 H   0  0  0  0  0  0  0  0  0  0  0  0
  1  2  1  0
  2  3  2  0
  3  4  1  0
  4  5  2  0
  5  6  1  0
  6  7  2  3
  7  8  1  0
  7  9  1  0
  9 10  2  3
 10 11  1  0
 10 12  1  0
  5 13  1  0
 13 14  2  0
 14 15  1  0
 14  2  1  0
  1 16  1  0
  1 17  1  0
  1 18  1  0
  3 19  1  0
  4 20  1  0
  8 21  1  0
  8 22  1  0
 11 23  1  0
 11 24  1  0
 12 25  1  0
 12 26  1  0
 13 27  1  0
 15 28  1  0
 15 29  1  0
 15 30  1  0
M  END
>  <loss>  (1) 
0.44996362924575806

>  <score>  (1) 
5.292322158813477

$$$$
VFRGNRZIYZQAOC-UHFFFAOYSA-N
     RDKit          3D

 30 30  0  0  0  0  0  0  0  0999 V2000
  127.0608  120.8868   88.0897 C   0  0  0  0  0  0  0  0  0  0  0  0
  125.7320  121.4422   87.6554 C   0  0  0  0  0  0  0  0  0  0  0  0
  125.4502  121.5580   86.2855 C   0  0  0  0  0  0  0  0  0  0  0  0
  124.2246  122.0646   85.8500 C   0  0  0  0  0  0  0  0  0  0  0  0
  123.2636  122.4734   86.7717 C   0  0  0  0  0  0  0  0  0  0  0  0
  122.0334  122.9687   86.3199 N   0  0  0  0  0  0  0  0  0  0  0  0
  120.9390  122.6137   86.9216 C   0  0  0  0  0  0  0  0  0  0  0  0
  120.8499  121.8107   88.0179 N   0  0  0  0  0  0  0  0  0  0  0  0
  119.7431  123.1103   86.4840 N   0  0  0  0  0  0  0  0  0  0  0  0
  119.6236  123.6287   85.3117 C   0  0  0  0  0  0  0  0  0  0  0  0
  120.5431  123.7782   84.3290 N   0  0  0  0  0  0  0  0  0  0  0  0
  118.4294  124.1110   84.8931 N   0  0  0  0  0  0  0  0  0  0  0  0
  123.5289  122.3412   88.1374 C   0  0  0  0  0  0  0  0  0  0  0  0
  124.7567  121.8335   88.5945 C   0  0  0  0  0  0  0  0  0  0  0  0
  124.9986  121.7186   90.0744 C   0  0  0  0  0  0  0  0  0  0  0  0
  127.1085  120.8668   89.1885 H   0  0  0  0  0  0  0  0  0  0  0  0
  127.1765  119.8650   87.6991 H   0  0  0  0  0  0  0  0  0  0  0  0
  127.8693  121.5223   87.6991 H   0  0  0  0  0  0  0  0  0  0  0  0
  126.2033  121.2461   85.5469 H   0  0  0  0  0  0  0  0  0  0  0  0
  124.0164  122.1415   84.7726 H   0  0  0  0  0  0  0  0  0  0  0  0
  119.9281  121.5890   88.4203 H   0  0  0  0  0  0  0  0  0  0  0  0
  121.7044  121.4252   88.4447 H   0  0  0  0  0  0  0  0  0  0  0  0
  120.2772  124.2212   83.4380 H   0  0  0  0  0  0  0  0  0  0  0  0
  121.5084  123.4488   84.4725 H   0  0  0  0  0  0  0  0  0  0  0  0
  118.3416  124.5243   83.9538 H   0  0  0  0  0  0  0  0  0  0  0  0
  117.6089  124.0644   85.5140 H   0  0  0  0  0  0  0  0  0  0  0  0
  122.7626  122.6401   88.8677 H   0  0  0  0  0  0  0  0  0  0  0  0
  124.1357  122.1283   90.6198 H   0  0  0  0  0  0  0  0  0  0  0  0
  125.1333  120.6604   90.3428 H   0  0  0  0  0  0  0  0  0  0  0  0
  125.9038  122.2831   90.3428 H   0  0  0  0  0  0  0  0  0  0  0  0
  1  2  1  0
  2  3  2  0
  3  4  1  0
  4  5  2  0
  5  6  1  0
  6  7  2  3
  7  8  1  0
  7  9  1  0
  9 10  2  3
 10 11  1  0
 10 12  1  0
  5 13  1  0
 13 14  2  0
 14 15  1  0
 14  2  1  0
  1 16  1  0
  1 17  1  0
  1 18  1  0
  3 19  1  0
  4 20  1  0
  8 21  1  0
  8 22  1  0
 11 23  1  0
 11 24  1  0
 12 25  1  0
 12 26  1  0
 13 27  1  0
 15 28  1  0
 15 29  1  0
 15 30  1  0
M  END
>  <loss>  (2) 
0.4590578079223633

>  <score>  (2) 
5.2624993324279785

$$$$
VFRGNRZIYZQAOC-UHFFFAOYSA-N
     RDKit          3D

 30 30  0  0  0  0  0  0  0  0999 V2000
  127.1819  121.4077   88.4094 C   0  0  0  0  0  0  0  0  0  0  0  0
  125.8163  121.6215   87.8157 C   0  0  0  0  0  0  0  0  0  0  0  0
  125.6954  121.8511   86.4366 C   0  0  0  0  0  0  0  0  0  0  0  0
  124.4420  122.0423   85.8529 C   0  0  0  0  0  0  0  0  0  0  0  0
  123.2894  122.0184   86.6353 C   0  0  0  0  0  0  0  0  0  0  0  0
  122.0367  122.2003   86.0355 N   0  0  0  0  0  0  0  0  0  0  0  0
  121.0321  122.5995   86.7550 C   0  0  0  0  0  0  0  0  0  0  0  0
  121.0679  122.8865   88.0857 N   0  0  0  0  0  0  0  0  0  0  0  0
  119.8051  122.7720   86.1756 N   0  0  0  0  0  0  0  0  0  0  0  0
  119.5927  123.6575   85.2662 C   0  0  0  0  0  0  0  0  0  0  0  0
  120.4294  124.5777   84.7315 N   0  0  0  0  0  0  0  0  0  0  0  0
  118.3660  123.7842   84.7068 N   0  0  0  0  0  0  0  0  0  0  0  0
  123.4003  121.7696   88.0055 C   0  0  0  0  0  0  0  0  0  0  0  0
  124.6531  121.5706   88.6100 C   0  0  0  0  0  0  0  0  0  0  0  0
  124.7209  121.3114   90.0899 C   0  0  0  0  0  0  0  0  0  0  0  0
  127.1105  121.4189   89.5070 H   0  0  0  0  0  0  0  0  0  0  0  0
  127.5780  120.4366   88.0776 H   0  0  0  0  0  0  0  0  0  0  0  0
  127.8559  122.2112   88.0776 H   0  0  0  0  0  0  0  0  0  0  0  0
  126.5982  121.8806   85.8087 H   0  0  0  0  0  0  0  0  0  0  0  0
  124.3637  122.2129   84.7690 H   0  0  0  0  0  0  0  0  0  0  0  0
  120.2130  123.1975   88.5687 H   0  0  0  0  0  0  0  0  0  0  0  0
  121.9500  122.7926   88.6092 H   0  0  0  0  0  0  0  0  0  0  0  0
  120.0901  125.2193   84.0006 H   0  0  0  0  0  0  0  0  0  0  0  0
  121.4054  124.6361   85.0554 H   0  0  0  0  0  0  0  0  0  0  0  0
  118.2026  124.4949   83.9794 H   0  0  0  0  0  0  0  0  0  0  0  0
  117.5963  123.1698   85.0086 H   0  0  0  0  0  0  0  0  0  0  0  0
  122.4904  121.7286   88.6223 H   0  0  0  0  0  0  0  0  0  0  0  0
  124.4792  122.2354   90.6355 H   0  0  0  0  0  0  0  0  0  0  0  0
  123.9977  120.5272   90.3583 H   0  0  0  0  0  0  0  0  0  0  0  0
  125.7355  120.9818   90.3583 H   0  0  0  0  0  0  0  0  0  0  0  0
  1  2  1  0
  2  3  2  0
  3  4  1  0
  4  5  2  0
  5  6  1  0
  6  7  2  3
  7  8  1  0
  7  9  1  0
  9 10  2  3
 10 11  1  0
 10 12  1  0
  5 13  1  0
 13 14  2  0
 14 15  1  0
 14  2  1  0
  1 16  1  0
  1 17  1  0
  1 18  1  0
  3 19  1  0
  4 20  1  0
  8 21  1  0
  8 22  1  0
 11 23  1  0
 11 24  1  0
 12 25  1  0
 12 26  1  0
 13 27  1  0
 15 28  1  0
 15 29  1  0
 15 30  1  0
M  END
>  <loss>  (3) 
0.4554806351661682

>  <score>  (3) 
5.14110803604126

$$$$
VFRGNRZIYZQAOC-UHFFFAOYSA-N
     RDKit          3D

 30 30  0  0  0  0  0  0  0  0999 V2000
  127.2130  121.4923   87.3475 C   0  0  0  0  0  0  0  0  0  0  0  0
  125.7247  121.5719   87.5478 C   0  0  0  0  0  0  0  0  0  0  0  0
  124.8737  121.4439   86.4403 C   0  0  0  0  0  0  0  0  0  0  0  0
  123.4875  121.5110   86.5953 C   0  0  0  0  0  0  0  0  0  0  0  0
  122.9206  121.7204   87.8518 C   0  0  0  0  0  0  0  0  0  0  0  0
  121.5217  121.7497   87.9641 N   0  0  0  0  0  0  0  0  0  0  0  0
  120.7860  122.4301   87.1363 C   0  0  0  0  0  0  0  0  0  0  0  0
  119.4464  122.4680   87.3504 N   0  0  0  0  0  0  0  0  0  0  0  0
  121.2731  123.1534   86.0912 N   0  0  0  0  0  0  0  0  0  0  0  0
  120.4321  123.7569   85.3256 C   0  0  0  0  0  0  0  0  0  0  0  0
  120.8677  124.4959   84.2784 N   0  0  0  0  0  0  0  0  0  0  0  0
  119.0794  123.8044   85.3845 N   0  0  0  0  0  0  0  0  0  0  0  0
  123.7655  121.8162   88.9619 C   0  0  0  0  0  0  0  0  0  0  0  0
  125.1637  121.7525   88.8272 C   0  0  0  0  0  0  0  0  0  0  0  0
  126.0247  121.8836   90.0529 C   0  0  0  0  0  0  0  0  0  0  0  0
  127.7138  121.4655   88.3266 H   0  0  0  0  0  0  0  0  0  0  0  0
  127.4590  120.5797   86.7848 H   0  0  0  0  0  0  0  0  0  0  0  0
  127.5549  122.3734   86.7848 H   0  0  0  0  0  0  0  0  0  0  0  0
  125.3027  121.2891   85.4393 H   0  0  0  0  0  0  0  0  0  0  0  0
  122.8357  121.3974   85.7165 H   0  0  0  0  0  0  0  0  0  0  0  0
  118.8376  122.9989   86.7115 H   0  0  0  0  0  0  0  0  0  0  0  0
  119.0386  121.9657   88.1519 H   0  0  0  0  0  0  0  0  0  0  0  0
  120.1898  124.9762   83.6697 H   0  0  0  0  0  0  0  0  0  0  0  0
  121.8771  124.5779   84.0904 H   0  0  0  0  0  0  0  0  0  0  0  0
  118.5519  124.3420   84.6819 H   0  0  0  0  0  0  0  0  0  0  0  0
  118.5785  123.3029   86.1319 H   0  0  0  0  0  0  0  0  0  0  0  0
  123.3267  121.9443   89.9624 H   0  0  0  0  0  0  0  0  0  0  0  0
  125.3989  121.7883   90.9525 H   0  0  0  0  0  0  0  0  0  0  0  0
  126.7877  121.0912   90.0514 H   0  0  0  0  0  0  0  0  0  0  0  0
  126.5175  122.8670   90.0514 H   0  0  0  0  0  0  0  0  0  0  0  0
  1  2  1  0
  2  3  2  0
  3  4  1  0
  4  5  2  0
  5  6  1  0
  6  7  2  3
  7  8  1  0
  7  9  1  0
  9 10  2  3
 10 11  1  0
 10 12  1  0
  5 13  1  0
 13 14  2  0
 14 15  1  0
 14  2  1  0
  1 16  1  0
  1 17  1  0
  1 18  1  0
  3 19  1  0
  4 20  1  0
  8 21  1  0
  8 22  1  0
 11 23  1  0
 11 24  1  0
 12 25  1  0
 12 26  1  0
 13 27  1  0
 15 28  1  0
 15 29  1  0
 15 30  1  0
M  END
>  <loss>  (4) 
0.5297579765319824

>  <score>  (4) 
5.408736228942871

$$$$
VFRGNRZIYZQAOC-UHFFFAOYSA-N
     RDKit          3D

 30 30  0  0  0  0  0  0  0  0999 V2000
  127.1986  121.4707   88.4624 C   0  0  0  0  0  0  0  0  0  0  0  0
  125.8280  121.6486   87.8684 C   0  0  0  0  0  0  0  0  0  0  0  0
  125.7053  121.9529   86.5039 C   0  0  0  0  0  0  0  0  0  0  0  0
  124.4478  122.1136   85.9197 C   0  0  0  0  0  0  0  0  0  0  0  0
  123.2925  121.9840   86.6875 C   0  0  0  0  0  0  0  0  0  0  0  0
  122.0363  122.1363   86.0865 N   0  0  0  0  0  0  0  0  0  0  0  0
  121.0427  122.5980   86.7836 C   0  0  0  0  0  0  0  0  0  0  0  0
  121.0940  122.9803   88.0897 N   0  0  0  0  0  0  0  0  0  0  0  0
  119.8124  122.7422   86.2036 N   0  0  0  0  0  0  0  0  0  0  0  0
  119.5754  123.6344   85.3068 C   0  0  0  0  0  0  0  0  0  0  0  0
  120.3854  124.5871   84.7880 N   0  0  0  0  0  0  0  0  0  0  0  0
  118.3467  123.7324   84.7460 N   0  0  0  0  0  0  0  0  0  0  0  0
  123.4063  121.6605   88.0417 C   0  0  0  0  0  0  0  0  0  0  0  0
  124.6633  121.4910   88.6463 C   0  0  0  0  0  0  0  0  0  0  0  0
  124.7339  121.1483   90.1090 C   0  0  0  0  0  0  0  0  0  0  0  0
  127.1266  121.4800   89.5600 H   0  0  0  0  0  0  0  0  0  0  0  0
  127.6201  120.5102   88.1307 H   0  0  0  0  0  0  0  0  0  0  0  0
  127.8514  122.2916   88.1307 H   0  0  0  0  0  0  0  0  0  0  0  0
  126.6097  122.0660   85.8882 H   0  0  0  0  0  0  0  0  0  0  0  0
  124.3685  122.3438   84.8469 H   0  0  0  0  0  0  0  0  0  0  0  0
  120.2469  123.3352   88.5560 H   0  0  0  0  0  0  0  0  0  0  0  0
  121.9797  122.9144   88.6112 H   0  0  0  0  0  0  0  0  0  0  0  0
  120.0285  125.2290   84.0658 H   0  0  0  0  0  0  0  0  0  0  0  0
  121.3584  124.6701   85.1154 H   0  0  0  0  0  0  0  0  0  0  0  0
  118.1636  124.4487   84.0288 H   0  0  0  0  0  0  0  0  0  0  0  0
  117.5953  123.0908   85.0367 H   0  0  0  0  0  0  0  0  0  0  0  0
  122.4954  121.5363   88.6457 H   0  0  0  0  0  0  0  0  0  0  0  0
  124.5476  122.0527   90.7068 H   0  0  0  0  0  0  0  0  0  0  0  0
  123.9732  120.3896   90.3450 H   0  0  0  0  0  0  0  0  0  0  0  0
  125.7326  120.7521   90.3450 H   0  0  0  0  0  0  0  0  0  0  0  0
  1  2  1  0
  2  3  2  0
  3  4  1  0
  4  5  2  0
  5  6  1  0
  6  7  2  3
  7  8  1  0
  7  9  1  0
  9 10  2  3
 10 11  1  0
 10 12  1  0
  5 13  1  0
 13 14  2  0
 14 15  1  0
 14  2  1  0
  1 16  1  0
  1 17  1  0
  1 18  1  0
  3 19  1  0
  4 20  1  0
  8 21  1  0
  8 22  1  0
 11 23  1  0
 11 24  1  0
 12 25  1  0
 12 26  1  0
 13 27  1  0
 15 28  1  0
 15 29  1  0
 15 30  1  0
M  END
>  <loss>  (5) 
0.46582871675491333

>  <score>  (5) 
5.0807037353515625

$$$$
VFRGNRZIYZQAOC-UHFFFAOYSA-N
     RDKit          3D

 30 30  0  0  0  0  0  0  0  0999 V2000
  127.0395  120.8440   88.0575 C   0  0  0  0  0  0  0  0  0  0  0  0
  125.7186  121.4252   87.6326 C   0  0  0  0  0  0  0  0  0  0  0  0
  125.4365  121.5628   86.2648 C   0  0  0  0  0  0  0  0  0  0  0  0
  124.2180  122.0935   85.8380 C   0  0  0  0  0  0  0  0  0  0  0  0
  123.2648  122.5051   86.7665 C   0  0  0  0  0  0  0  0  0  0  0  0
  122.0416  123.0248   86.3233 N   0  0  0  0  0  0  0  0  0  0  0  0
  120.9370  122.6262   86.8770 C   0  0  0  0  0  0  0  0  0  0  0  0
  120.8296  121.7514   87.9152 N   0  0  0  0  0  0  0  0  0  0  0  0
  119.7477  123.1465   86.4487 N   0  0  0  0  0  0  0  0  0  0  0  0
  119.6146  123.6175   85.2581 C   0  0  0  0  0  0  0  0  0  0  0  0
  120.5116  123.6906   84.2464 N   0  0  0  0  0  0  0  0  0  0  0  0
  118.4271  124.1241   84.8493 N   0  0  0  0  0  0  0  0  0  0  0  0
  123.5302  122.3514   88.1300 C   0  0  0  0  0  0  0  0  0  0  0  0
  124.7509  121.8192   88.5784 C   0  0  0  0  0  0  0  0  0  0  0  0
  124.9934  121.6817   90.0562 C   0  0  0  0  0  0  0  0  0  0  0  0
  127.0934  120.8203   89.1559 H   0  0  0  0  0  0  0  0  0  0  0  0
  127.1338  119.8213   87.6636 H   0  0  0  0  0  0  0  0  0  0  0  0
  127.8572  121.4655   87.6636 H   0  0  0  0  0  0  0  0  0  0  0  0
  126.1836  121.2489   85.5210 H   0  0  0  0  0  0  0  0  0  0  0  0
  124.0094  122.1873   84.7621 H   0  0  0  0  0  0  0  0  0  0  0  0
  119.9008  121.4997   88.2826 H   0  0  0  0  0  0  0  0  0  0  0  0
  121.6770  121.3414   88.3330 H   0  0  0  0  0  0  0  0  0  0  0  0
  120.2372  124.1039   83.3437 H   0  0  0  0  0  0  0  0  0  0  0  0
  121.4683  123.3330   84.3795 H   0  0  0  0  0  0  0  0  0  0  0  0
  118.3283  124.4992   83.8952 H   0  0  0  0  0  0  0  0  0  0  0  0
  117.6227  124.1344   85.4926 H   0  0  0  0  0  0  0  0  0  0  0  0
  122.7697  122.6525   88.8654 H   0  0  0  0  0  0  0  0  0  0  0  0
  124.1659  122.1509   90.6088 H   0  0  0  0  0  0  0  0  0  0  0  0
  125.0527  120.6156   90.3205 H   0  0  0  0  0  0  0  0  0  0  0  0
  125.9387  122.1782   90.3205 H   0  0  0  0  0  0  0  0  0  0  0  0
  1  2  1  0
  2  3  2  0
  3  4  1  0
  4  5  2  0
  5  6  1  0
  6  7  2  3
  7  8  1  0
  7  9  1  0
  9 10  2  3
 10 11  1  0
 10 12  1  0
  5 13  1  0
 13 14  2  0
 14 15  1  0
 14  2  1  0
  1 16  1  0
  1 17  1  0
  1 18  1  0
  3 19  1  0
  4 20  1  0
  8 21  1  0
  8 22  1  0
 11 23  1  0
 11 24  1  0
 12 25  1  0
 12 26  1  0
 13 27  1  0
 15 28  1  0
 15 29  1  0
 15 30  1  0
M  END
>  <loss>  (6) 
0.46586042642593384

>  <score>  (6) 
5.074923515319824

$$$$
VFRGNRZIYZQAOC-UHFFFAOYSA-N
     RDKit          3D

 30 30  0  0  0  0  0  0  0  0999 V2000
  127.2093  121.4849   87.3528 C   0  0  0  0  0  0  0  0  0  0  0  0
  125.7187  121.5653   87.5342 C   0  0  0  0  0  0  0  0  0  0  0  0
  124.8807  121.4107   86.4203 C   0  0  0  0  0  0  0  0  0  0  0  0
  123.4926  121.4778   86.5580 C   0  0  0  0  0  0  0  0  0  0  0  0
  122.9109  121.7138   87.8030 C   0  0  0  0  0  0  0  0  0  0  0  0
  121.5108  121.7423   87.8986 N   0  0  0  0  0  0  0  0  0  0  0  0
  120.7859  122.4400   87.0758 C   0  0  0  0  0  0  0  0  0  0  0  0
  119.4437  122.4749   87.2742 N   0  0  0  0  0  0  0  0  0  0  0  0
  121.2863  123.1837   86.0516 N   0  0  0  0  0  0  0  0  0  0  0  0
  120.4545  123.7871   85.2759 C   0  0  0  0  0  0  0  0  0  0  0  0
  120.9033  124.5459   84.2486 N   0  0  0  0  0  0  0  0  0  0  0  0
  119.1003  123.8167   85.3056 N   0  0  0  0  0  0  0  0  0  0  0  0
  123.7429  121.8364   88.9202 C   0  0  0  0  0  0  0  0  0  0  0  0
  125.1427  121.7731   88.8029 C   0  0  0  0  0  0  0  0  0  0  0  0
  125.9894  121.9335   90.0350 C   0  0  0  0  0  0  0  0  0  0  0  0
  127.6978  121.4585   88.3380 H   0  0  0  0  0  0  0  0  0  0  0  0
  127.4619  120.5718   86.7937 H   0  0  0  0  0  0  0  0  0  0  0  0
  127.5587  122.3655   86.7937 H   0  0  0  0  0  0  0  0  0  0  0  0
  125.3213  121.2346   85.4279 H   0  0  0  0  0  0  0  0  0  0  0  0
  122.8511  121.3432   85.6745 H   0  0  0  0  0  0  0  0  0  0  0  0
  118.8432  123.0192   86.6386 H   0  0  0  0  0  0  0  0  0  0  0  0
  119.0257  121.9569   88.0603 H   0  0  0  0  0  0  0  0  0  0  0  0
  120.2327  125.0260   83.6317 H   0  0  0  0  0  0  0  0  0  0  0  0
  121.9154  124.6432   84.0840 H   0  0  0  0  0  0  0  0  0  0  0  0
  118.5814  124.3573   84.5990 H   0  0  0  0  0  0  0  0  0  0  0  0
  118.5897  123.2987   86.0349 H   0  0  0  0  0  0  0  0  0  0  0  0
  123.2924  121.9857   89.9126 H   0  0  0  0  0  0  0  0  0  0  0  0
  125.3608  121.8144   90.9299 H   0  0  0  0  0  0  0  0  0  0  0  0
  126.7805  121.1692   90.0383 H   0  0  0  0  0  0  0  0  0  0  0  0
  126.4462  122.9341   90.0383 H   0  0  0  0  0  0  0  0  0  0  0  0
  1  2  1  0
  2  3  2  0
  3  4  1  0
  4  5  2  0
  5  6  1  0
  6  7  2  3
  7  8  1  0
  7  9  1  0
  9 10  2  3
 10 11  1  0
 10 12  1  0
  5 13  1  0
 13 14  2  0
 14 15  1  0
 14  2  1  0
  1 16  1  0
  1 17  1  0
  1 18  1  0
  3 19  1  0
  4 20  1  0
  8 21  1  0
  8 22  1  0
 11 23  1  0
 11 24  1  0
 12 25  1  0
 12 26  1  0
 13 27  1  0
 15 28  1  0
 15 29  1  0
 15 30  1  0
M  END
>  <loss>  (7) 
0.5176347494125366

>  <score>  (7) 
5.2806396484375

$$$$
VFRGNRZIYZQAOC-UHFFFAOYSA-N
     RDKit          3D

 30 30  0  0  0  0  0  0  0  0999 V2000
  127.2094  121.4751   87.3826 C   0  0  0  0  0  0  0  0  0  0  0  0
  125.7189  121.5575   87.5646 C   0  0  0  0  0  0  0  0  0  0  0  0
  124.8796  121.3831   86.4546 C   0  0  0  0  0  0  0  0  0  0  0  0
  123.4917  121.4516   86.5928 C   0  0  0  0  0  0  0  0  0  0  0  0
  122.9114  121.7085   87.8343 C   0  0  0  0  0  0  0  0  0  0  0  0
  121.5113  121.7375   87.9313 N   0  0  0  0  0  0  0  0  0  0  0  0
  120.7856  122.4302   87.1050 C   0  0  0  0  0  0  0  0  0  0  0  0
  119.4437  122.4662   87.3045 N   0  0  0  0  0  0  0  0  0  0  0  0
  121.2849  123.1675   86.0756 N   0  0  0  0  0  0  0  0  0  0  0  0
  120.4527  123.7752   85.3037 C   0  0  0  0  0  0  0  0  0  0  0  0
  120.9005  124.5281   84.2717 N   0  0  0  0  0  0  0  0  0  0  0  0
  119.0990  123.8150   85.3421 N   0  0  0  0  0  0  0  0  0  0  0  0
  123.7447  121.8509   88.9482 C   0  0  0  0  0  0  0  0  0  0  0  0
  125.1444  121.7867   88.8302 C   0  0  0  0  0  0  0  0  0  0  0  0
  125.9925  121.9688   90.0583 C   0  0  0  0  0  0  0  0  0  0  0  0
  127.6981  121.4481   88.3678 H   0  0  0  0  0  0  0  0  0  0  0  0
  127.4606  120.5617   86.8235 H   0  0  0  0  0  0  0  0  0  0  0  0
  127.5598  122.3553   86.8235 H   0  0  0  0  0  0  0  0  0  0  0  0
  125.3192  121.1903   85.4648 H   0  0  0  0  0  0  0  0  0  0  0  0
  122.8492  121.3012   85.7127 H   0  0  0  0  0  0  0  0  0  0  0  0
  118.8424  123.0067   86.6662 H   0  0  0  0  0  0  0  0  0  0  0  0
  119.0265  121.9532   88.0942 H   0  0  0  0  0  0  0  0  0  0  0  0
  120.2295  125.0116   83.6579 H   0  0  0  0  0  0  0  0  0  0  0  0
  121.9122  124.6173   84.1003 H   0  0  0  0  0  0  0  0  0  0  0  0
  118.5795  124.3577   84.6374 H   0  0  0  0  0  0  0  0  0  0  0  0
  118.5893  123.3027   86.0760 H   0  0  0  0  0  0  0  0  0  0  0  0
  123.2954  122.0169   89.9384 H   0  0  0  0  0  0  0  0  0  0  0  0
  125.3711  121.8354   90.9562 H   0  0  0  0  0  0  0  0  0  0  0  0
  126.8020  121.2241   90.0587 H   0  0  0  0  0  0  0  0  0  0  0  0
  126.4248  122.9803   90.0587 H   0  0  0  0  0  0  0  0  0  0  0  0
  1  2  1  0
  2  3  2  0
  3  4  1  0
  4  5  2  0
  5  6  1  0
  6  7  2  3
  7  8  1  0
  7  9  1  0
  9 10  2  3
 10 11  1  0
 10 12  1  0
  5 13  1  0
 13 14  2  0
 14 15  1  0
 14  2  1  0
  1 16  1  0
  1 17  1  0
  1 18  1  0
  3 19  1  0
  4 20  1  0
  8 21  1  0
  8 22  1  0
 11 23  1  0
 11 24  1  0
 12 25  1  0
 12 26  1  0
 13 27  1  0
 15 28  1  0
 15 29  1  0
 15 30  1  0
M  END
>  <loss>  (8) 
0.5191429853439331

>  <score>  (8) 
5.276310443878174

$$$$
VFRGNRZIYZQAOC-UHFFFAOYSA-N
     RDKit          3D

 30 30  0  0  0  0  0  0  0  0999 V2000
  127.0168  120.7328   87.9958 C   0  0  0  0  0  0  0  0  0  0  0  0
  125.7122  121.3834   87.6246 C   0  0  0  0  0  0  0  0  0  0  0  0
  125.3879  121.5486   86.2693 C   0  0  0  0  0  0  0  0  0  0  0  0
  124.1829  122.1437   85.8919 C   0  0  0  0  0  0  0  0  0  0  0  0
  123.2859  122.5930   86.8582 C   0  0  0  0  0  0  0  0  0  0  0  0
  122.0751  123.1774   86.4646 N   0  0  0  0  0  0  0  0  0  0  0  0
  120.9540  122.6758   86.8854 C   0  0  0  0  0  0  0  0  0  0  0  0
  120.8155  121.6232   87.7383 N   0  0  0  0  0  0  0  0  0  0  0  0
  119.7763  123.2582   86.5080 N   0  0  0  0  0  0  0  0  0  0  0  0
  119.5569  123.5891   85.2834 C   0  0  0  0  0  0  0  0  0  0  0  0
  120.3413  123.4437   84.1892 N   0  0  0  0  0  0  0  0  0  0  0  0
  118.3820  124.1604   84.9269 N   0  0  0  0  0  0  0  0  0  0  0  0
  123.5926  122.4125   88.2096 C   0  0  0  0  0  0  0  0  0  0  0  0
  124.8005  121.8156   88.6085 C   0  0  0  0  0  0  0  0  0  0  0  0
  125.0892  121.6513   90.0753 C   0  0  0  0  0  0  0  0  0  0  0  0
  127.1058  120.6884   89.0913 H   0  0  0  0  0  0  0  0  0  0  0  0
  127.0485  119.7134   87.5837 H   0  0  0  0  0  0  0  0  0  0  0  0
  127.8501  121.3209   87.5837 H   0  0  0  0  0  0  0  0  0  0  0  0
  126.0908  121.2054   85.4959 H   0  0  0  0  0  0  0  0  0  0  0  0
  123.9403  122.2587   84.8252 H   0  0  0  0  0  0  0  0  0  0  0  0
  119.8758  121.3015   88.0111 H   0  0  0  0  0  0  0  0  0  0  0  0
  121.6505  121.1486   88.1105 H   0  0  0  0  0  0  0  0  0  0  0  0
  120.0082  123.7678   83.2700 H   0  0  0  0  0  0  0  0  0  0  0  0
  121.2710  123.0090   84.2762 H   0  0  0  0  0  0  0  0  0  0  0  0
  118.2137  124.4225   83.9451 H   0  0  0  0  0  0  0  0  0  0  0  0
  117.6567  124.3330   85.6376 H   0  0  0  0  0  0  0  0  0  0  0  0
  122.8754  122.7437   88.9750 H   0  0  0  0  0  0  0  0  0  0  0  0
  124.2804  122.1114   90.6619 H   0  0  0  0  0  0  0  0  0  0  0  0
  125.1551  120.5805   90.3183 H   0  0  0  0  0  0  0  0  0  0  0  0
  126.0433  122.1418   90.3183 H   0  0  0  0  0  0  0  0  0  0  0  0
  1  2  1  0
  2  3  2  0
  3  4  1  0
  4  5  2  0
  5  6  1  0
  6  7  2  3
  7  8  1  0
  7  9  1  0
  9 10  2  3
 10 11  1  0
 10 12  1  0
  5 13  1  0
 13 14  2  0
 14 15  1  0
 14  2  1  0
  1 16  1  0
  1 17  1  0
  1 18  1  0
  3 19  1  0
  4 20  1  0
  8 21  1  0
  8 22  1  0
 11 23  1  0
 11 24  1  0
 12 25  1  0
 12 26  1  0
 13 27  1  0
 15 28  1  0
 15 29  1  0
 15 30  1  0
M  END
>  <loss>  (9) 
0.47801122069358826

>  <score>  (9) 
4.850008964538574

$$$$
VFRGNRZIYZQAOC-UHFFFAOYSA-N
     RDKit          3D

 30 30  0  0  0  0  0  0  0  0999 V2000
  126.9742  120.6632   87.9818 C   0  0  0  0  0  0  0  0  0  0  0  0
  125.6812  121.3372   87.6121 C   0  0  0  0  0  0  0  0  0  0  0  0
  125.3194  121.4341   86.2597 C   0  0  0  0  0  0  0  0  0  0  0  0
  124.1286  122.0574   85.8830 C   0  0  0  0  0  0  0  0  0  0  0  0
  123.2729  122.5845   86.8490 C   0  0  0  0  0  0  0  0  0  0  0  0
  122.0805  123.2244   86.4858 N   0  0  0  0  0  0  0  0  0  0  0  0
  120.9442  122.7182   86.8579 C   0  0  0  0  0  0  0  0  0  0  0  0
  120.7699  121.6134   87.6339 N   0  0  0  0  0  0  0  0  0  0  0  0
  119.7902  123.3602   86.5076 N   0  0  0  0  0  0  0  0  0  0  0  0
  119.5252  123.6102   85.2699 C   0  0  0  0  0  0  0  0  0  0  0  0
  120.2481  123.3038   84.1664 N   0  0  0  0  0  0  0  0  0  0  0  0
  118.3607  124.2205   84.9482 N   0  0  0  0  0  0  0  0  0  0  0  0
  123.6361  122.5085   88.1953 C   0  0  0  0  0  0  0  0  0  0  0  0
  124.8310  121.8853   88.5934 C   0  0  0  0  0  0  0  0  0  0  0  0
  125.1771  121.8256   90.0557 C   0  0  0  0  0  0  0  0  0  0  0  0
  127.0634  120.6167   89.0772 H   0  0  0  0  0  0  0  0  0  0  0  0
  126.9872  119.6435   87.5692 H   0  0  0  0  0  0  0  0  0  0  0  0
  127.8176  121.2364   87.5692 H   0  0  0  0  0  0  0  0  0  0  0  0
  125.9813  121.0142   85.4880 H   0  0  0  0  0  0  0  0  0  0  0  0
  123.8640  122.1332   84.8180 H   0  0  0  0  0  0  0  0  0  0  0  0
  119.8194  121.2956   87.8712 H   0  0  0  0  0  0  0  0  0  0  0  0
  121.5886  121.0954   87.9837 H   0  0  0  0  0  0  0  0  0  0  0  0
  119.9032  123.5724   83.2338 H   0  0  0  0  0  0  0  0  0  0  0  0
  121.1429  122.8022   84.2598 H   0  0  0  0  0  0  0  0  0  0  0  0
  118.1410  124.4239   83.9627 H   0  0  0  0  0  0  0  0  0  0  0  0
  117.6943  124.4814   85.6889 H   0  0  0  0  0  0  0  0  0  0  0  0
  122.9746  122.9447   88.9583 H   0  0  0  0  0  0  0  0  0  0  0  0
  124.2677  121.9825   90.6545 H   0  0  0  0  0  0  0  0  0  0  0  0
  125.6056  120.8403   90.2912 H   0  0  0  0  0  0  0  0  0  0  0  0
  125.9110  122.6104   90.2912 H   0  0  0  0  0  0  0  0  0  0  0  0
  1  2  1  0
  2  3  2  0
  3  4  1  0
  4  5  2  0
  5  6  1  0
  6  7  2  3
  7  8  1  0
  7  9  1  0
  9 10  2  3
 10 11  1  0
 10 12  1  0
  5 13  1  0
 13 14  2  0
 14 15  1  0
 14  2  1  0
  1 16  1  0
  1 17  1  0
  1 18  1  0
  3 19  1  0
  4 20  1  0
  8 21  1  0
  8 22  1  0
 11 23  1  0
 11 24  1  0
 12 25  1  0
 12 26  1  0
 13 27  1  0
 15 28  1  0
 15 29  1  0
 15 30  1  0
M  END
>  <loss>  (10) 
0.45932677388191223

>  <score>  (10) 
4.741595268249512

$$$$
VFRGNRZIYZQAOC-UHFFFAOYSA-N
     RDKit          3D

 30 30  0  0  0  0  0  0  0  0999 V2000
  126.9759  120.6637   87.9975 C   0  0  0  0  0  0  0  0  0  0  0  0
  125.6864  121.3396   87.6192 C   0  0  0  0  0  0  0  0  0  0  0  0
  125.3420  121.4523   86.2634 C   0  0  0  0  0  0  0  0  0  0  0  0
  124.1549  122.0778   85.8788 C   0  0  0  0  0  0  0  0  0  0  0  0
  123.2855  122.5912   86.8399 C   0  0  0  0  0  0  0  0  0  0  0  0
  122.0966  123.2331   86.4690 N   0  0  0  0  0  0  0  0  0  0  0  0
  120.9566  122.7194   86.8188 C   0  0  0  0  0  0  0  0  0  0  0  0
  120.7745  121.6042   87.5778 N   0  0  0  0  0  0  0  0  0  0  0  0
  119.8059  123.3633   86.4614 N   0  0  0  0  0  0  0  0  0  0  0  0
  119.5498  123.6151   85.2221 C   0  0  0  0  0  0  0  0  0  0  0  0
  120.2799  123.3090   84.1233 N   0  0  0  0  0  0  0  0  0  0  0  0
  118.3883  124.2273   84.8931 N   0  0  0  0  0  0  0  0  0  0  0  0
  123.6312  122.4995   88.1898 C   0  0  0  0  0  0  0  0  0  0  0  0
  124.8221  121.8739   88.5959 C   0  0  0  0  0  0  0  0  0  0  0  0
  125.1492  121.7969   90.0618 C   0  0  0  0  0  0  0  0  0  0  0  0
  127.0592  120.6200   89.0935 H   0  0  0  0  0  0  0  0  0  0  0  0
  126.9887  119.6429   87.5879 H   0  0  0  0  0  0  0  0  0  0  0  0
  127.8227  121.2338   87.5879 H   0  0  0  0  0  0  0  0  0  0  0  0
  126.0150  121.0432   85.4954 H   0  0  0  0  0  0  0  0  0  0  0  0
  123.9042  122.1661   84.8115 H   0  0  0  0  0  0  0  0  0  0  0  0
  119.8216  121.2810   87.7979 H   0  0  0  0  0  0  0  0  0  0  0  0
  121.5896  121.0835   87.9319 H   0  0  0  0  0  0  0  0  0  0  0  0
  119.9417  123.5792   83.1886 H   0  0  0  0  0  0  0  0  0  0  0  0
  121.1733  122.8061   84.2223 H   0  0  0  0  0  0  0  0  0  0  0  0
  118.1756  124.4322   83.9064 H   0  0  0  0  0  0  0  0  0  0  0  0
  117.7171  124.4883   85.6295 H   0  0  0  0  0  0  0  0  0  0  0  0
  122.9588  122.9249   88.9493 H   0  0  0  0  0  0  0  0  0  0  0  0
  124.2449  122.0097   90.6509 H   0  0  0  0  0  0  0  0  0  0  0  0
  125.5153  120.7882   90.3033 H   0  0  0  0  0  0  0  0  0  0  0  0
  125.9266  122.5367   90.3033 H   0  0  0  0  0  0  0  0  0  0  0  0
  1  2  1  0
  2  3  2  0
  3  4  1  0
  4  5  2  0
  5  6  1  0
  6  7  2  3
  7  8  1  0
  7  9  1  0
  9 10  2  3
 10 11  1  0
 10 12  1  0
  5 13  1  0
 13 14  2  0
 14 15  1  0
 14  2  1  0
  1 16  1  0
  1 17  1  0
  1 18  1  0
  3 19  1  0
  4 20  1  0
  8 21  1  0
  8 22  1  0
 11 23  1  0
 11 24  1  0
 12 25  1  0
 12 26  1  0
 13 27  1  0
 15 28  1  0
 15 29  1  0
 15 30  1  0
M  END
>  <loss>  (11) 
0.4663539230823517

>  <score>  (11) 
4.76148796081543

$$$$
VFRGNRZIYZQAOC-UHFFFAOYSA-N
     RDKit          3D

 30 30  0  0  0  0  0  0  0  0999 V2000
  126.9911  120.6510   88.0044 C   0  0  0  0  0  0  0  0  0  0  0  0
  125.6999  121.3345   87.6462 C   0  0  0  0  0  0  0  0  0  0  0  0
  125.3333  121.4459   86.2962 C   0  0  0  0  0  0  0  0  0  0  0  0
  124.1440  122.0783   85.9301 C   0  0  0  0  0  0  0  0  0  0  0  0
  123.2944  122.6001   86.9044 C   0  0  0  0  0  0  0  0  0  0  0  0
  122.1036  123.2489   86.5520 N   0  0  0  0  0  0  0  0  0  0  0  0
  120.9648  122.6972   86.8426 C   0  0  0  0  0  0  0  0  0  0  0  0
  120.7843  121.5312   87.5214 N   0  0  0  0  0  0  0  0  0  0  0  0
  119.8118  123.3477   86.5045 N   0  0  0  0  0  0  0  0  0  0  0  0
  119.5352  123.5990   85.2696 C   0  0  0  0  0  0  0  0  0  0  0  0
  120.2437  123.2864   84.1585 N   0  0  0  0  0  0  0  0  0  0  0  0
  118.3719  124.2178   84.9603 N   0  0  0  0  0  0  0  0  0  0  0  0
  123.6625  122.5096   88.2485 C   0  0  0  0  0  0  0  0  0  0  0  0
  124.8560  121.8771   88.6360 C   0  0  0  0  0  0  0  0  0  0  0  0
  125.2074  121.8019   90.0963 C   0  0  0  0  0  0  0  0  0  0  0  0
  127.0876  120.5999   89.0990 H   0  0  0  0  0  0  0  0  0  0  0  0
  126.9948  119.6328   87.5881 H   0  0  0  0  0  0  0  0  0  0  0  0
  127.8352  121.2204   87.5881 H   0  0  0  0  0  0  0  0  0  0  0  0
  125.9903  121.0303   85.5180 H   0  0  0  0  0  0  0  0  0  0  0  0
  123.8756  122.1654   84.8669 H   0  0  0  0  0  0  0  0  0  0  0  0
  119.8322  121.1809   87.6993 H   0  0  0  0  0  0  0  0  0  0  0  0
  121.5999  120.9993   87.8572 H   0  0  0  0  0  0  0  0  0  0  0  0
  119.8906  123.5570   83.2295 H   0  0  0  0  0  0  0  0  0  0  0  0
  121.1356  122.7781   84.2424 H   0  0  0  0  0  0  0  0  0  0  0  0
  118.1429  124.4223   83.9771 H   0  0  0  0  0  0  0  0  0  0  0  0
  117.7156  124.4842   85.7080 H   0  0  0  0  0  0  0  0  0  0  0  0
  123.0059  122.9415   89.0181 H   0  0  0  0  0  0  0  0  0  0  0  0
  124.3084  121.9944   90.7002 H   0  0  0  0  0  0  0  0  0  0  0  0
  125.5975  120.7999   90.3284 H   0  0  0  0  0  0  0  0  0  0  0  0
  125.9735  122.5564   90.3284 H   0  0  0  0  0  0  0  0  0  0  0  0
  1  2  1  0
  2  3  2  0
  3  4  1  0
  4  5  2  0
  5  6  1  0
  6  7  2  3
  7  8  1  0
  7  9  1  0
  9 10  2  3
 10 11  1  0
 10 12  1  0
  5 13  1  0
 13 14  2  0
 14 15  1  0
 14  2  1  0
  1 16  1  0
  1 17  1  0
  1 18  1  0
  3 19  1  0
  4 20  1  0
  8 21  1  0
  8 22  1  0
 11 23  1  0
 11 24  1  0
 12 25  1  0
 12 26  1  0
 13 27  1  0
 15 28  1  0
 15 29  1  0
 15 30  1  0
M  END
>  <loss>  (12) 
0.47903409600257874

>  <score>  (12) 
4.740598678588867

$$$$
VFRGNRZIYZQAOC-UHFFFAOYSA-N
     RDKit          3D

 30 30  0  0  0  0  0  0  0  0999 V2000
  127.0785  121.9542   87.2175 C   0  0  0  0  0  0  0  0  0  0  0  0
  125.5997  121.9606   86.9441 C   0  0  0  0  0  0  0  0  0  0  0  0
  125.1449  122.1436   85.6299 C   0  0  0  0  0  0  0  0  0  0  0  0
  123.7782  122.1587   85.3423 C   0  0  0  0  0  0  0  0  0  0  0  0
  122.8376  121.9729   86.3551 C   0  0  0  0  0  0  0  0  0  0  0  0
  121.4551  122.0107   86.1154 N   0  0  0  0  0  0  0  0  0  0  0  0
  120.9205  122.9239   85.3605 C   0  0  0  0  0  0  0  0  0  0  0  0
  119.5696  122.9398   85.2313 N   0  0  0  0  0  0  0  0  0  0  0  0
  121.6212  123.9028   84.7254 N   0  0  0  0  0  0  0  0  0  0  0  0
  120.9783  124.7052   83.9506 C   0  0  0  0  0  0  0  0  0  0  0  0
  121.6291  125.7005   83.3038 N   0  0  0  0  0  0  0  0  0  0  0  0
  119.6591  124.7508   83.6452 N   0  0  0  0  0  0  0  0  0  0  0  0
  123.2879  121.8187   87.6696 C   0  0  0  0  0  0  0  0  0  0  0  0
  124.6588  121.8027   87.9803 C   0  0  0  0  0  0  0  0  0  0  0  0
  125.0869  121.6277   89.4109 C   0  0  0  0  0  0  0  0  0  0  0  0
  127.2505  121.9534   88.3040 H   0  0  0  0  0  0  0  0  0  0  0  0
  127.5294  121.0541   86.7743 H   0  0  0  0  0  0  0  0  0  0  0  0
  127.5372  122.8503   86.7743 H   0  0  0  0  0  0  0  0  0  0  0  0
  125.8731  122.2767   84.8162 H   0  0  0  0  0  0  0  0  0  0  0  0
  123.4407  122.3186   84.3077 H   0  0  0  0  0  0  0  0  0  0  0  0
  119.1172  123.6514   84.6399 H   0  0  0  0  0  0  0  0  0  0  0  0
  118.9968  122.2402   85.7247 H   0  0  0  0  0  0  0  0  0  0  0  0
  121.1089  126.3391   82.6853 H   0  0  0  0  0  0  0  0  0  0  0  0
  122.6444  125.8193   83.4301 H   0  0  0  0  0  0  0  0  0  0  0  0
  119.3050  125.4687   82.9971 H   0  0  0  0  0  0  0  0  0  0  0  0
  119.0103  124.0675   84.0613 H   0  0  0  0  0  0  0  0  0  0  0  0
  122.5522  121.7074   88.4798 H   0  0  0  0  0  0  0  0  0  0  0  0
  124.2779  121.9584   90.0788 H   0  0  0  0  0  0  0  0  0  0  0  0
  125.3083  120.5670   89.6003 H   0  0  0  0  0  0  0  0  0  0  0  0
  125.9879  122.2298   89.6003 H   0  0  0  0  0  0  0  0  0  0  0  0
  1  2  1  0
  2  3  2  0
  3  4  1  0
  4  5  2  0
  5  6  1  0
  6  7  2  3
  7  8  1  0
  7  9  1  0
  9 10  2  3
 10 11  1  0
 10 12  1  0
  5 13  1  0
 13 14  2  0
 14 15  1  0
 14  2  1  0
  1 16  1  0
  1 17  1  0
  1 18  1  0
  3 19  1  0
  4 20  1  0
  8 21  1  0
  8 22  1  0
 11 23  1  0
 11 24  1  0
 12 25  1  0
 12 26  1  0
 13 27  1  0
 15 28  1  0
 15 29  1  0
 15 30  1  0
M  END
>  <loss>  (13) 
0.5754808187484741

>  <score>  (13) 
3.1954729557037354

$$$$
VFRGNRZIYZQAOC-UHFFFAOYSA-N
     RDKit          3D

 30 30  0  0  0  0  0  0  0  0999 V2000
  124.9993  121.5978   90.0968 C   0  0  0  0  0  0  0  0  0  0  0  0
  124.3688  121.7129   88.7364 C   0  0  0  0  0  0  0  0  0  0  0  0
  122.9799  121.5638   88.6081 C   0  0  0  0  0  0  0  0  0  0  0  0
  122.3633  121.6609   87.3588 C   0  0  0  0  0  0  0  0  0  0  0  0
  123.1151  121.9274   86.2148 C   0  0  0  0  0  0  0  0  0  0  0  0
  122.5404  122.0033   84.9364 N   0  0  0  0  0  0  0  0  0  0  0  0
  121.8230  123.0243   84.5728 C   0  0  0  0  0  0  0  0  0  0  0  0
  121.2410  122.9959   83.3471 N   0  0  0  0  0  0  0  0  0  0  0  0
  121.5717  124.1061   85.3597 N   0  0  0  0  0  0  0  0  0  0  0  0
  120.9284  125.0955   84.8451 C   0  0  0  0  0  0  0  0  0  0  0  0
  120.6462  126.1902   85.5898 N   0  0  0  0  0  0  0  0  0  0  0  0
  120.4286  125.2541   83.5958 N   0  0  0  0  0  0  0  0  0  0  0  0
  124.5026  122.0481   86.3363 C   0  0  0  0  0  0  0  0  0  0  0  0
  125.1428  121.9516   87.5841 C   0  0  0  0  0  0  0  0  0  0  0  0
  126.6377  122.0954   87.6571 C   0  0  0  0  0  0  0  0  0  0  0  0
  124.2301  121.7382   90.8705 H   0  0  0  0  0  0  0  0  0  0  0  0
  125.4533  120.6019   90.2075 H   0  0  0  0  0  0  0  0  0  0  0  0
  125.7758  122.3690   90.2075 H   0  0  0  0  0  0  0  0  0  0  0  0
  122.3694  121.3680   89.5020 H   0  0  0  0  0  0  0  0  0  0  0  0
  121.2747  121.5260   87.2763 H   0  0  0  0  0  0  0  0  0  0  0  0
  120.6667  123.7904   83.0312 H   0  0  0  0  0  0  0  0  0  0  0  0
  121.3737  122.1798   82.7328 H   0  0  0  0  0  0  0  0  0  0  0  0
  120.1313  126.9784   85.1721 H   0  0  0  0  0  0  0  0  0  0  0  0
  120.9465  126.2349   86.5740 H   0  0  0  0  0  0  0  0  0  0  0  0
  119.9329  126.1217   83.3457 H   0  0  0  0  0  0  0  0  0  0  0  0
  120.5443  124.5071   82.8962 H   0  0  0  0  0  0  0  0  0  0  0  0
  125.1076  122.2227   85.4343 H   0  0  0  0  0  0  0  0  0  0  0  0
  126.9521  122.1256   88.7108 H   0  0  0  0  0  0  0  0  0  0  0  0
  127.1132  121.2388   87.1570 H   0  0  0  0  0  0  0  0  0  0  0  0
  126.9413  123.0269   87.1570 H   0  0  0  0  0  0  0  0  0  0  0  0
  1  2  1  0
  2  3  2  0
  3  4  1  0
  4  5  2  0
  5  6  1  0
  6  7  2  3
  7  8  1  0
  7  9  1  0
  9 10  2  3
 10 11  1  0
 10 12  1  0
  5 13  1  0
 13 14  2  0
 14 15  1  0
 14  2  1  0
  1 16  1  0
  1 17  1  0
  1 18  1  0
  3 19  1  0
  4 20  1  0
  8 21  1  0
  8 22  1  0
 11 23  1  0
 11 24  1  0
 12 25  1  0
 12 26  1  0
 13 27  1  0
 15 28  1  0
 15 29  1  0
 15 30  1  0
M  END
>  <loss>  (14) 
0.6121706962585449

>  <score>  (14) 
2.905128240585327

$$$$
VFRGNRZIYZQAOC-UHFFFAOYSA-N
     RDKit          3D

 30 30  0  0  0  0  0  0  0  0999 V2000
  126.6075  120.3704   89.3341 C   0  0  0  0  0  0  0  0  0  0  0  0
  125.4831  120.9717   88.5368 C   0  0  0  0  0  0  0  0  0  0  0  0
  124.4722  120.1373   88.0375 C   0  0  0  0  0  0  0  0  0  0  0  0
  123.4160  120.6631   87.2900 C   0  0  0  0  0  0  0  0  0  0  0  0
  123.3354  122.0329   87.0410 C   0  0  0  0  0  0  0  0  0  0  0  0
  122.3083  122.5992   86.2698 N   0  0  0  0  0  0  0  0  0  0  0  0
  121.1342  122.8399   86.7725 C   0  0  0  0  0  0  0  0  0  0  0  0
  120.1699  123.3227   85.9485 N   0  0  0  0  0  0  0  0  0  0  0  0
  120.7865  122.5935   88.0652 N   0  0  0  0  0  0  0  0  0  0  0  0
  119.6205  122.9676   88.4627 C   0  0  0  0  0  0  0  0  0  0  0  0
  119.2249  122.7370   89.7366 N   0  0  0  0  0  0  0  0  0  0  0  0
  118.6273  123.5908   87.7838 N   0  0  0  0  0  0  0  0  0  0  0  0
  124.3567  122.8625   87.5134 C   0  0  0  0  0  0  0  0  0  0  0  0
  125.4293  122.3529   88.2658 C   0  0  0  0  0  0  0  0  0  0  0  0
  126.4973  123.2919   88.7539 C   0  0  0  0  0  0  0  0  0  0  0  0
  126.3968  120.4831   90.4079 H   0  0  0  0  0  0  0  0  0  0  0  0
  126.7006  119.3022   89.0889 H   0  0  0  0  0  0  0  0  0  0  0  0
  127.5477  120.8862   89.0889 H   0  0  0  0  0  0  0  0  0  0  0  0
  124.5117  119.0563   88.2370 H   0  0  0  0  0  0  0  0  0  0  0  0
  122.6407  119.9906   86.8942 H   0  0  0  0  0  0  0  0  0  0  0  0
  119.2296  123.5231   86.3180 H   0  0  0  0  0  0  0  0  0  0  0  0
  120.3785  123.4888   84.9535 H   0  0  0  0  0  0  0  0  0  0  0  0
  118.2908  123.0389   90.0484 H   0  0  0  0  0  0  0  0  0  0  0  0
  119.8580  122.2598   90.3941 H   0  0  0  0  0  0  0  0  0  0  0  0
  117.7439  123.8218   88.2604 H   0  0  0  0  0  0  0  0  0  0  0  0
  118.7556  123.8336   86.7911 H   0  0  0  0  0  0  0  0  0  0  0  0
  124.3202  123.9392   87.2912 H   0  0  0  0  0  0  0  0  0  0  0  0
  126.5049  123.2986   89.8539 H   0  0  0  0  0  0  0  0  0  0  0  0
  127.4772  122.9576   88.3825 H   0  0  0  0  0  0  0  0  0  0  0  0
  126.2911  124.3066   88.3825 H   0  0  0  0  0  0  0  0  0  0  0  0
  1  2  1  0
  2  3  2  0
  3  4  1  0
  4  5  2  0
  5  6  1  0
  6  7  2  3
  7  8  1  0
  7  9  1  0
  9 10  2  3
 10 11  1  0
 10 12  1  0
  5 13  1  0
 13 14  2  0
 14 15  1  0
 14  2  1  0
  1 16  1  0
  1 17  1  0
  1 18  1  0
  3 19  1  0
  4 20  1  0
  8 21  1  0
  8 22  1  0
 11 23  1  0
 11 24  1  0
 12 25  1  0
 12 26  1  0
 13 27  1  0
 15 28  1  0
 15 29  1  0
 15 30  1  0
M  END
>  <loss>  (15) 
0.7321896553039551

>  <score>  (15) 
3.341179132461548

$$$$
VFRGNRZIYZQAOC-UHFFFAOYSA-N
     RDKit          3D

 30 30  0  0  0  0  0  0  0  0999 V2000
  126.5288  120.4422   89.4678 C   0  0  0  0  0  0  0  0  0  0  0  0
  125.4217  121.0119   88.6244 C   0  0  0  0  0  0  0  0  0  0  0  0
  124.3421  120.1924   88.2632 C   0  0  0  0  0  0  0  0  0  0  0  0
  123.2996  120.6891   87.4775 C   0  0  0  0  0  0  0  0  0  0  0  0
  123.3021  122.0171   87.0518 C   0  0  0  0  0  0  0  0  0  0  0  0
  122.2906  122.5488   86.2366 N   0  0  0  0  0  0  0  0  0  0  0  0
  121.1133  122.8304   86.7101 C   0  0  0  0  0  0  0  0  0  0  0  0
  120.1643  123.2750   85.8477 N   0  0  0  0  0  0  0  0  0  0  0  0
  120.7478  122.6627   88.0104 N   0  0  0  0  0  0  0  0  0  0  0  0
  119.5857  123.0812   88.3738 C   0  0  0  0  0  0  0  0  0  0  0  0
  119.1727  122.9292   89.6539 N   0  0  0  0  0  0  0  0  0  0  0  0
  118.6123  123.6855   87.6506 N   0  0  0  0  0  0  0  0  0  0  0  0
  124.3908  122.8276   87.3868 C   0  0  0  0  0  0  0  0  0  0  0  0
  125.4509  122.3464   88.1748 C   0  0  0  0  0  0  0  0  0  0  0  0
  126.5940  123.2639   88.5097 C   0  0  0  0  0  0  0  0  0  0  0  0
  126.2816  120.5695   90.5321 H   0  0  0  0  0  0  0  0  0  0  0  0
  126.6464  119.3716   89.2441 H   0  0  0  0  0  0  0  0  0  0  0  0
  127.4683  120.9689   89.2441 H   0  0  0  0  0  0  0  0  0  0  0  0
  124.3162  119.1464   88.6026 H   0  0  0  0  0  0  0  0  0  0  0  0
  122.4691  120.0268   87.1920 H   0  0  0  0  0  0  0  0  0  0  0  0
  119.2220  123.5063   86.1934 H   0  0  0  0  0  0  0  0  0  0  0  0
  120.3864  123.3812   84.8476 H   0  0  0  0  0  0  0  0  0  0  0  0
  118.2419  123.2662   89.9382 H   0  0  0  0  0  0  0  0  0  0  0  0
  119.7894  122.4765   90.3437 H   0  0  0  0  0  0  0  0  0  0  0  0
  117.7290  123.9599   88.1039 H   0  0  0  0  0  0  0  0  0  0  0  0
  118.7555  123.8705   86.6475 H   0  0  0  0  0  0  0  0  0  0  0  0
  124.4187  123.8661   87.0253 H   0  0  0  0  0  0  0  0  0  0  0  0
  126.6926  123.3430   89.6024 H   0  0  0  0  0  0  0  0  0  0  0  0
  127.5251  122.8596   88.0859 H   0  0  0  0  0  0  0  0  0  0  0  0
  126.4006  124.2604   88.0859 H   0  0  0  0  0  0  0  0  0  0  0  0
  1  2  1  0
  2  3  2  0
  3  4  1  0
  4  5  2  0
  5  6  1  0
  6  7  2  3
  7  8  1  0
  7  9  1  0
  9 10  2  3
 10 11  1  0
 10 12  1  0
  5 13  1  0
 13 14  2  0
 14 15  1  0
 14  2  1  0
  1 16  1  0
  1 17  1  0
  1 18  1  0
  3 19  1  0
  4 20  1  0
  8 21  1  0
  8 22  1  0
 11 23  1  0
 11 24  1  0
 12 25  1  0
 12 26  1  0
 13 27  1  0
 15 28  1  0
 15 29  1  0
 15 30  1  0
M  END
>  <loss>  (16) 
0.7319289445877075

>  <score>  (16) 
3.329887866973877

$$$$
VFRGNRZIYZQAOC-UHFFFAOYSA-N
     RDKit          3D

 30 30  0  0  0  0  0  0  0  0999 V2000
  126.5674  120.3863   89.4044 C   0  0  0  0  0  0  0  0  0  0  0  0
  125.4520  120.9745   88.5850 C   0  0  0  0  0  0  0  0  0  0  0  0
  124.3898  120.1526   88.1802 C   0  0  0  0  0  0  0  0  0  0  0  0
  123.3402  120.6663   87.4152 C   0  0  0  0  0  0  0  0  0  0  0  0
  123.3180  122.0132   87.0542 C   0  0  0  0  0  0  0  0  0  0  0  0
  122.2988  122.5639   86.2615 N   0  0  0  0  0  0  0  0  0  0  0  0
  121.1258  122.8331   86.7524 C   0  0  0  0  0  0  0  0  0  0  0  0
  120.1688  123.2979   85.9099 N   0  0  0  0  0  0  0  0  0  0  0  0
  120.7723  122.6334   88.0516 N   0  0  0  0  0  0  0  0  0  0  0  0
  119.6101  123.0347   88.4336 C   0  0  0  0  0  0  0  0  0  0  0  0
  119.2089  122.8508   89.7133 N   0  0  0  0  0  0  0  0  0  0  0  0
  118.6262  123.6476   87.7321 N   0  0  0  0  0  0  0  0  0  0  0  0
  124.3896  122.8275   87.4324 C   0  0  0  0  0  0  0  0  0  0  0  0
  125.4564  122.3295   88.2005 C   0  0  0  0  0  0  0  0  0  0  0  0
  126.5802  123.2518   88.5841 C   0  0  0  0  0  0  0  0  0  0  0  0
  126.3395  120.5065   90.4738 H   0  0  0  0  0  0  0  0  0  0  0  0
  126.6704  119.3167   89.1694 H   0  0  0  0  0  0  0  0  0  0  0  0
  127.5082  120.9056   89.1694 H   0  0  0  0  0  0  0  0  0  0  0  0
  124.3834  119.0911   88.4686 H   0  0  0  0  0  0  0  0  0  0  0  0
  122.5238  120.0026   87.0946 H   0  0  0  0  0  0  0  0  0  0  0  0
  119.2296  123.5200   86.2698 H   0  0  0  0  0  0  0  0  0  0  0  0
  120.3816  123.4286   84.9107 H   0  0  0  0  0  0  0  0  0  0  0  0
  118.2779  123.1742   90.0127 H   0  0  0  0  0  0  0  0  0  0  0  0
  119.8345  122.3875   90.3877 H   0  0  0  0  0  0  0  0  0  0  0  0
  117.7447  123.9049   88.1986 H   0  0  0  0  0  0  0  0  0  0  0  0
  118.7598  123.8561   86.7323 H   0  0  0  0  0  0  0  0  0  0  0  0
  124.3982  123.8827   87.1216 H   0  0  0  0  0  0  0  0  0  0  0  0
  126.6498  123.3089   89.6804 H   0  0  0  0  0  0  0  0  0  0  0  0
  127.5263  122.8664   88.1762 H   0  0  0  0  0  0  0  0  0  0  0  0
  126.3867  124.2549   88.1762 H   0  0  0  0  0  0  0  0  0  0  0  0
  1  2  1  0
  2  3  2  0
  3  4  1  0
  4  5  2  0
  5  6  1  0
  6  7  2  3
  7  8  1  0
  7  9  1  0
  9 10  2  3
 10 11  1  0
 10 12  1  0
  5 13  1  0
 13 14  2  0
 14 15  1  0
 14  2  1  0
  1 16  1  0
  1 17  1  0
  1 18  1  0
  3 19  1  0
  4 20  1  0
  8 21  1  0
  8 22  1  0
 11 23  1  0
 11 24  1  0
 12 25  1  0
 12 26  1  0
 13 27  1  0
 15 28  1  0
 15 29  1  0
 15 30  1  0
M  END
>  <loss>  (17) 
0.7278442978858948

>  <score>  (17) 
3.2972559928894043

$$$$
VFRGNRZIYZQAOC-UHFFFAOYSA-N
     RDKit          3D

 30 30  0  0  0  0  0  0  0  0999 V2000
  126.8647  121.6281   87.3873 C   0  0  0  0  0  0  0  0  0  0  0  0
  125.4111  121.5790   87.7715 C   0  0  0  0  0  0  0  0  0  0  0  0
  125.0183  120.8064   88.8752 C   0  0  0  0  0  0  0  0  0  0  0  0
  123.6791  120.7484   89.2644 C   0  0  0  0  0  0  0  0  0  0  0  0
  122.7079  121.4508   88.5540 C   0  0  0  0  0  0  0  0  0  0  0  0
  121.3691  121.3933   88.9619 N   0  0  0  0  0  0  0  0  0  0  0  0
  121.0853  121.3363   90.2278 C   0  0  0  0  0  0  0  0  0  0  0  0
  121.9869  121.3401   91.2484 N   0  0  0  0  0  0  0  0  0  0  0  0
  119.7799  121.2730   90.6312 N   0  0  0  0  0  0  0  0  0  0  0  0
  119.1002  122.3248   90.9276 C   0  0  0  0  0  0  0  0  0  0  0  0
  119.4724  123.6262   90.9529 N   0  0  0  0  0  0  0  0  0  0  0  0
  117.8046  122.2187   91.3071 N   0  0  0  0  0  0  0  0  0  0  0  0
  123.0944  122.2386   87.4671 C   0  0  0  0  0  0  0  0  0  0  0  0
  124.4382  122.3126   87.0631 C   0  0  0  0  0  0  0  0  0  0  0  0
  124.8036  123.1706   85.8832 C   0  0  0  0  0  0  0  0  0  0  0  0
  127.4837  121.6489   88.2964 H   0  0  0  0  0  0  0  0  0  0  0  0
  127.1170  120.7379   86.7923 H   0  0  0  0  0  0  0  0  0  0  0  0
  127.0564  122.5332   86.7923 H   0  0  0  0  0  0  0  0  0  0  0  0
  125.7739  120.2405   89.4397 H   0  0  0  0  0  0  0  0  0  0  0  0
  123.3888  120.1447   90.1369 H   0  0  0  0  0  0  0  0  0  0  0  0
  121.6605  121.2914   92.2241 H   0  0  0  0  0  0  0  0  0  0  0  0
  122.9952  121.3917   91.0447 H   0  0  0  0  0  0  0  0  0  0  0  0
  118.7908  124.3518   91.2172 H   0  0  0  0  0  0  0  0  0  0  0  0
  120.4372  123.8907   90.7078 H   0  0  0  0  0  0  0  0  0  0  0  0
  117.2661  123.0645   91.5429 H   0  0  0  0  0  0  0  0  0  0  0  0
  117.3576  121.2923   91.3598 H   0  0  0  0  0  0  0  0  0  0  0  0
  122.3330  122.8114   86.9174 H   0  0  0  0  0  0  0  0  0  0  0  0
  125.2116  124.1283   86.2386 H   0  0  0  0  0  0  0  0  0  0  0  0
  125.5596  122.6535   85.2740 H   0  0  0  0  0  0  0  0  0  0  0  0
  123.9070  123.3574   85.2740 H   0  0  0  0  0  0  0  0  0  0  0  0
  1  2  1  0
  2  3  2  0
  3  4  1  0
  4  5  2  0
  5  6  1  0
  6  7  2  3
  7  8  1  0
  7  9  1  0
  9 10  2  3
 10 11  1  0
 10 12  1  0
  5 13  1  0
 13 14  2  0
 14 15  1  0
 14  2  1  0
  1 16  1  0
  1 17  1  0
  1 18  1  0
  3 19  1  0
  4 20  1  0
  8 21  1  0
  8 22  1  0
 11 23  1  0
 11 24  1  0
 12 25  1  0
 12 26  1  0
 13 27  1  0
 15 28  1  0
 15 29  1  0
 15 30  1  0
M  END
>  <loss>  (18) 
0.8130812644958496

>  <score>  (18) 
3.5344343185424805

$$$$
VFRGNRZIYZQAOC-UHFFFAOYSA-N
     RDKit          3D

 30 30  0  0  0  0  0  0  0  0999 V2000
  126.8604  121.6255   87.3299 C   0  0  0  0  0  0  0  0  0  0  0  0
  125.4126  121.5778   87.7357 C   0  0  0  0  0  0  0  0  0  0  0  0
  125.0360  120.8109   88.8490 C   0  0  0  0  0  0  0  0  0  0  0  0
  123.7016  120.7500   89.2543 C   0  0  0  0  0  0  0  0  0  0  0  0
  122.7193  121.4439   88.5516 C   0  0  0  0  0  0  0  0  0  0  0  0
  121.3860  121.3830   88.9773 N   0  0  0  0  0  0  0  0  0  0  0  0
  121.1201  121.3219   90.2466 C   0  0  0  0  0  0  0  0  0  0  0  0
  122.0296  121.3533   91.2598 N   0  0  0  0  0  0  0  0  0  0  0  0
  119.8168  121.2754   90.6561 N   0  0  0  0  0  0  0  0  0  0  0  0
  119.1800  122.3459   90.9814 C   0  0  0  0  0  0  0  0  0  0  0  0
  119.5912  123.6360   90.9825 N   0  0  0  0  0  0  0  0  0  0  0  0
  117.8874  122.2812   91.3798 N   0  0  0  0  0  0  0  0  0  0  0  0
  123.0901  122.2266   87.4548 C   0  0  0  0  0  0  0  0  0  0  0  0
  124.4281  122.3001   87.0321 C   0  0  0  0  0  0  0  0  0  0  0  0
  124.7761  123.1492   85.8406 C   0  0  0  0  0  0  0  0  0  0  0  0
  127.4929  121.6464   88.2296 H   0  0  0  0  0  0  0  0  0  0  0  0
  127.1031  120.7349   86.7317 H   0  0  0  0  0  0  0  0  0  0  0  0
  127.0439  122.5302   86.7317 H   0  0  0  0  0  0  0  0  0  0  0  0
  125.8005  120.2517   89.4083 H   0  0  0  0  0  0  0  0  0  0  0  0
  123.4242  120.1505   90.1339 H   0  0  0  0  0  0  0  0  0  0  0  0
  121.7127  121.2982   92.2382 H   0  0  0  0  0  0  0  0  0  0  0  0
  123.0344  121.4323   91.0475 H   0  0  0  0  0  0  0  0  0  0  0  0
  118.9450  124.3823   91.2764 H   0  0  0  0  0  0  0  0  0  0  0  0
  120.5502  123.8711   90.6894 H   0  0  0  0  0  0  0  0  0  0  0  0
  117.3845  123.1420   91.6386 H   0  0  0  0  0  0  0  0  0  0  0  0
  117.4071  121.3711   91.4241 H   0  0  0  0  0  0  0  0  0  0  0  0
  122.3204  122.7955   86.9126 H   0  0  0  0  0  0  0  0  0  0  0  0
  125.1727  124.1164   86.1829 H   0  0  0  0  0  0  0  0  0  0  0  0
  125.5362  122.6353   85.2337 H   0  0  0  0  0  0  0  0  0  0  0  0
  123.8742  123.3167   85.2337 H   0  0  0  0  0  0  0  0  0  0  0  0
  1  2  1  0
  2  3  2  0
  3  4  1  0
  4  5  2  0
  5  6  1  0
  6  7  2  3
  7  8  1  0
  7  9  1  0
  9 10  2  3
 10 11  1  0
 10 12  1  0
  5 13  1  0
 13 14  2  0
 14 15  1  0
 14  2  1  0
  1 16  1  0
  1 17  1  0
  1 18  1  0
  3 19  1  0
  4 20  1  0
  8 21  1  0
  8 22  1  0
 11 23  1  0
 11 24  1  0
 12 25  1  0
 12 26  1  0
 13 27  1  0
 15 28  1  0
 15 29  1  0
 15 30  1  0
M  END
>  <loss>  (19) 
0.8123173117637634

>  <score>  (19) 
3.5172345638275146

$$$$
VFRGNRZIYZQAOC-UHFFFAOYSA-N
     RDKit          3D

 30 30  0  0  0  0  0  0  0  0999 V2000
  126.0388  122.7765   85.8279 C   0  0  0  0  0  0  0  0  0  0  0  0
  125.1619  122.1552   86.8799 C   0  0  0  0  0  0  0  0  0  0  0  0
  123.8637  121.7474   86.5404 C   0  0  0  0  0  0  0  0  0  0  0  0
  123.0271  121.1652   87.4950 C   0  0  0  0  0  0  0  0  0  0  0  0
  123.4596  120.9895   88.8089 C   0  0  0  0  0  0  0  0  0  0  0  0
  122.5955  120.3716   89.7264 N   0  0  0  0  0  0  0  0  0  0  0  0
  121.5555  120.9877   90.2039 C   0  0  0  0  0  0  0  0  0  0  0  0
  120.8066  120.3516   91.1401 N   0  0  0  0  0  0  0  0  0  0  0  0
  121.1901  122.2544   89.8656 N   0  0  0  0  0  0  0  0  0  0  0  0
  120.1786  122.7763   90.4674 C   0  0  0  0  0  0  0  0  0  0  0  0
  119.7818  124.0364   90.1724 N   0  0  0  0  0  0  0  0  0  0  0  0
  119.3774  122.2609   91.4308 N   0  0  0  0  0  0  0  0  0  0  0  0
  124.7645  121.3659   89.1420 C   0  0  0  0  0  0  0  0  0  0  0  0
  125.6221  121.9549   88.1961 C   0  0  0  0  0  0  0  0  0  0  0  0
  127.0080  122.3601   88.6156 C   0  0  0  0  0  0  0  0  0  0  0  0
  126.8446  123.3473   86.3125 H   0  0  0  0  0  0  0  0  0  0  0  0
  126.4758  121.9854   85.2009 H   0  0  0  0  0  0  0  0  0  0  0  0
  125.4374  123.4511   85.2009 H   0  0  0  0  0  0  0  0  0  0  0  0
  123.5007  121.8877   85.5116 H   0  0  0  0  0  0  0  0  0  0  0  0
  122.0159  120.8416   87.2073 H   0  0  0  0  0  0  0  0  0  0  0  0
  119.9765  120.8144   91.5371 H   0  0  0  0  0  0  0  0  0  0  0  0
  121.0683  119.4060   91.4535 H   0  0  0  0  0  0  0  0  0  0  0  0
  118.9718  124.4482   90.6574 H   0  0  0  0  0  0  0  0  0  0  0  0
  120.2898  124.5835   89.4628 H   0  0  0  0  0  0  0  0  0  0  0  0
  118.6007  122.8217   91.8091 H   0  0  0  0  0  0  0  0  0  0  0  0
  119.5450  121.3082   91.7848 H   0  0  0  0  0  0  0  0  0  0  0  0
  125.1280  121.1975   90.1664 H   0  0  0  0  0  0  0  0  0  0  0  0
  127.0682  122.3777   89.7138 H   0  0  0  0  0  0  0  0  0  0  0  0
  127.7369  121.6375   88.2200 H   0  0  0  0  0  0  0  0  0  0  0  0
  127.2327  123.3616   88.2200 H   0  0  0  0  0  0  0  0  0  0  0  0
  1  2  1  0
  2  3  2  0
  3  4  1  0
  4  5  2  0
  5  6  1  0
  6  7  2  3
  7  8  1  0
  7  9  1  0
  9 10  2  3
 10 11  1  0
 10 12  1  0
  5 13  1  0
 13 14  2  0
 14 15  1  0
 14  2  1  0
  1 16  1  0
  1 17  1  0
  1 18  1  0
  3 19  1  0
  4 20  1  0
  8 21  1  0
  8 22  1  0
 11 23  1  0
 11 24  1  0
 12 25  1  0
 12 26  1  0
 13 27  1  0
 15 28  1  0
 15 29  1  0
 15 30  1  0
M  END
>  <loss>  (20) 
0.6787056922912598

>  <score>  (20) 
2.693527936935425

$$$$
VFRGNRZIYZQAOC-UHFFFAOYSA-N
     RDKit          3D

 30 30  0  0  0  0  0  0  0  0999 V2000
  126.7569  122.0253   86.5188 C   0  0  0  0  0  0  0  0  0  0  0  0
  125.4145  121.8150   87.1643 C   0  0  0  0  0  0  0  0  0  0  0  0
  125.2992  120.9108   88.2313 C   0  0  0  0  0  0  0  0  0  0  0  0
  124.0687  120.6971   88.8550 C   0  0  0  0  0  0  0  0  0  0  0  0
  122.9313  121.3729   88.4197 C   0  0  0  0  0  0  0  0  0  0  0  0
  121.7056  121.1572   89.0630 N   0  0  0  0  0  0  0  0  0  0  0  0
  121.6279  121.2805   90.3531 C   0  0  0  0  0  0  0  0  0  0  0  0
  122.6388  121.6531   91.1862 N   0  0  0  0  0  0  0  0  0  0  0  0
  120.4264  121.0811   90.9736 N   0  0  0  0  0  0  0  0  0  0  0  0
  119.6972  122.0722   91.3520 C   0  0  0  0  0  0  0  0  0  0  0  0
  119.9079  123.4041   91.2284 N   0  0  0  0  0  0  0  0  0  0  0  0
  118.5069  121.8555   91.9605 N   0  0  0  0  0  0  0  0  0  0  0  0
  123.0428  122.2907   87.3717 C   0  0  0  0  0  0  0  0  0  0  0  0
  124.2728  122.5190   86.7318 C   0  0  0  0  0  0  0  0  0  0  0  0
  124.3403  123.5102   85.6028 C   0  0  0  0  0  0  0  0  0  0  0  0
  127.5237  122.1455   87.2983 H   0  0  0  0  0  0  0  0  0  0  0  0
  127.0033  121.1548   85.8931 H   0  0  0  0  0  0  0  0  0  0  0  0
  126.7253  122.9295   85.8931 H   0  0  0  0  0  0  0  0  0  0  0  0
  126.1880  120.3646   88.5800 H   0  0  0  0  0  0  0  0  0  0  0  0
  123.9970  119.9907   89.6952 H   0  0  0  0  0  0  0  0  0  0  0  0
  122.4719  121.7207   92.2004 H   0  0  0  0  0  0  0  0  0  0  0  0
  123.5702  121.8672   90.8022 H   0  0  0  0  0  0  0  0  0  0  0  0
  119.2124  124.0714   91.5916 H   0  0  0  0  0  0  0  0  0  0  0  0
  120.7635  123.7498   90.7710 H   0  0  0  0  0  0  0  0  0  0  0  0
  117.9290  122.6536   92.2604 H   0  0  0  0  0  0  0  0  0  0  0  0
  118.1796  120.8926   92.1234 H   0  0  0  0  0  0  0  0  0  0  0  0
  122.1514  122.8444   87.0417 H   0  0  0  0  0  0  0  0  0  0  0  0
  124.4098  124.5286   86.0126 H   0  0  0  0  0  0  0  0  0  0  0  0
  125.2264  123.3023   84.9850 H   0  0  0  0  0  0  0  0  0  0  0  0
  123.4343  123.4245   84.9850 H   0  0  0  0  0  0  0  0  0  0  0  0
  1  2  1  0
  2  3  2  0
  3  4  1  0
  4  5  2  0
  5  6  1  0
  6  7  2  3
  7  8  1  0
  7  9  1  0
  9 10  2  3
 10 11  1  0
 10 12  1  0
  5 13  1  0
 13 14  2  0
 14 15  1  0
 14  2  1  0
  1 16  1  0
  1 17  1  0
  1 18  1  0
  3 19  1  0
  4 20  1  0
  8 21  1  0
  8 22  1  0
 11 23  1  0
 11 24  1  0
 12 25  1  0
 12 26  1  0
 13 27  1  0
 15 28  1  0
 15 29  1  0
 15 30  1  0
M  END
>  <loss>  (21) 
0.7806305885314941

>  <score>  (21) 
2.885542869567871

$$$$
VFRGNRZIYZQAOC-UHFFFAOYSA-N
     RDKit          3D

 30 30  0  0  0  0  0  0  0  0999 V2000
  126.7471  122.0217   86.4879 C   0  0  0  0  0  0  0  0  0  0  0  0
  125.4164  121.8144   87.1580 C   0  0  0  0  0  0  0  0  0  0  0  0
  125.3148  120.8955   88.2138 C   0  0  0  0  0  0  0  0  0  0  0  0
  124.0936  120.6766   88.8535 C   0  0  0  0  0  0  0  0  0  0  0  0
  122.9557  121.3786   88.4592 C   0  0  0  0  0  0  0  0  0  0  0  0
  121.7203  121.1606   89.0831 N   0  0  0  0  0  0  0  0  0  0  0  0
  121.6256  121.2779   90.3727 C   0  0  0  0  0  0  0  0  0  0  0  0
  122.6213  121.6501   91.2230 N   0  0  0  0  0  0  0  0  0  0  0  0
  120.4117  121.0752   90.9658 N   0  0  0  0  0  0  0  0  0  0  0  0
  119.6905  122.0743   91.3483 C   0  0  0  0  0  0  0  0  0  0  0  0
  119.9456  123.3997   91.2369 N   0  0  0  0  0  0  0  0  0  0  0  0
  118.4784  121.8461   91.9057 N   0  0  0  0  0  0  0  0  0  0  0  0
  123.0456  122.2804   87.3967 C   0  0  0  0  0  0  0  0  0  0  0  0
  124.2661  122.5135   86.7403 C   0  0  0  0  0  0  0  0  0  0  0  0
  124.3132  123.4968   85.6034 C   0  0  0  0  0  0  0  0  0  0  0  0
  127.5280  122.1433   87.2531 H   0  0  0  0  0  0  0  0  0  0  0  0
  126.9815  121.1492   85.8603 H   0  0  0  0  0  0  0  0  0  0  0  0
  126.7051  122.9241   85.8603 H   0  0  0  0  0  0  0  0  0  0  0  0
  126.2072  120.3417   88.5407 H   0  0  0  0  0  0  0  0  0  0  0  0
  124.0289  119.9461   89.6733 H   0  0  0  0  0  0  0  0  0  0  0  0
  122.4383  121.7119   92.2347 H   0  0  0  0  0  0  0  0  0  0  0  0
  123.5578  121.8699   90.8546 H   0  0  0  0  0  0  0  0  0  0  0  0
  119.2661  124.0867   91.5936 H   0  0  0  0  0  0  0  0  0  0  0  0
  120.8191  123.7207   90.7955 H   0  0  0  0  0  0  0  0  0  0  0  0
  117.8959  122.6377   92.2139 H   0  0  0  0  0  0  0  0  0  0  0  0
  118.1384  120.8807   92.0217 H   0  0  0  0  0  0  0  0  0  0  0  0
  122.1443  122.8182   87.0675 H   0  0  0  0  0  0  0  0  0  0  0  0
  124.3622  124.5196   86.0050 H   0  0  0  0  0  0  0  0  0  0  0  0
  125.2030  123.3019   84.9868 H   0  0  0  0  0  0  0  0  0  0  0  0
  123.4088  123.3879   84.9868 H   0  0  0  0  0  0  0  0  0  0  0  0
  1  2  1  0
  2  3  2  0
  3  4  1  0
  4  5  2  0
  5  6  1  0
  6  7  2  3
  7  8  1  0
  7  9  1  0
  9 10  2  3
 10 11  1  0
 10 12  1  0
  5 13  1  0
 13 14  2  0
 14 15  1  0
 14  2  1  0
  1 16  1  0
  1 17  1  0
  1 18  1  0
  3 19  1  0
  4 20  1  0
  8 21  1  0
  8 22  1  0
 11 23  1  0
 11 24  1  0
 12 25  1  0
 12 26  1  0
 13 27  1  0
 15 28  1  0
 15 29  1  0
 15 30  1  0
M  END
>  <loss>  (22) 
0.7804098129272461

>  <score>  (22) 
2.868666410446167

$$$$
VFRGNRZIYZQAOC-UHFFFAOYSA-N
     RDKit          3D

 30 30  0  0  0  0  0  0  0  0999 V2000
  126.5204  121.5382   86.0469 C   0  0  0  0  0  0  0  0  0  0  0  0
  125.4114  121.5893   87.0620 C   0  0  0  0  0  0  0  0  0  0  0  0
  125.5369  120.8584   88.2534 C   0  0  0  0  0  0  0  0  0  0  0  0
  124.5308  120.8931   89.2204 C   0  0  0  0  0  0  0  0  0  0  0  0
  123.3788  121.6482   89.0116 C   0  0  0  0  0  0  0  0  0  0  0  0
  122.3818  121.6837   89.9950 N   0  0  0  0  0  0  0  0  0  0  0  0
  121.4484  120.7807   89.9960 C   0  0  0  0  0  0  0  0  0  0  0  0
  121.3356  119.7490   89.1143 N   0  0  0  0  0  0  0  0  0  0  0  0
  120.4687  120.8148   90.9498 N   0  0  0  0  0  0  0  0  0  0  0  0
  119.9801  121.9194   91.3943 C   0  0  0  0  0  0  0  0  0  0  0  0
  120.3023  123.1996   91.0944 N   0  0  0  0  0  0  0  0  0  0  0  0
  118.9989  121.9079   92.3276 N   0  0  0  0  0  0  0  0  0  0  0  0
  123.2562  122.3950   87.8374 C   0  0  0  0  0  0  0  0  0  0  0  0
  124.2603  122.3757   86.8546 C   0  0  0  0  0  0  0  0  0  0  0  0
  124.0796  123.1926   85.6048 C   0  0  0  0  0  0  0  0  0  0  0  0
  127.4898  121.4936   86.5649 H   0  0  0  0  0  0  0  0  0  0  0  0
  126.3998  120.6447   85.4168 H   0  0  0  0  0  0  0  0  0  0  0  0
  126.4825  122.4391   85.4168 H   0  0  0  0  0  0  0  0  0  0  0  0
  126.4378  120.2516   88.4271 H   0  0  0  0  0  0  0  0  0  0  0  0
  124.6483  120.3210   90.1525 H   0  0  0  0  0  0  0  0  0  0  0  0
  120.5553  119.0821   89.1992 H   0  0  0  0  0  0  0  0  0  0  0  0
  122.0305  119.6357   88.3626 H   0  0  0  0  0  0  0  0  0  0  0  0
  119.8028  123.9767   91.5500 H   0  0  0  0  0  0  0  0  0  0  0  0
  121.0469  123.3966   90.4106 H   0  0  0  0  0  0  0  0  0  0  0  0
  118.6122  122.7954   92.6792 H   0  0  0  0  0  0  0  0  0  0  0  0
  118.6394  121.0116   92.6859 H   0  0  0  0  0  0  0  0  0  0  0  0
  122.3575  123.0092   87.6793 H   0  0  0  0  0  0  0  0  0  0  0  0
  123.8494  124.2333   85.8770 H   0  0  0  0  0  0  0  0  0  0  0  0
  125.0055  123.1650   85.0116 H   0  0  0  0  0  0  0  0  0  0  0  0
  123.2516  122.7771   85.0116 H   0  0  0  0  0  0  0  0  0  0  0  0
  1  2  1  0
  2  3  2  0
  3  4  1  0
  4  5  2  0
  5  6  1  0
  6  7  2  3
  7  8  1  0
  7  9  1  0
  9 10  2  3
 10 11  1  0
 10 12  1  0
  5 13  1  0
 13 14  2  0
 14 15  1  0
 14  2  1  0
  1 16  1  0
  1 17  1  0
  1 18  1  0
  3 19  1  0
  4 20  1  0
  8 21  1  0
  8 22  1  0
 11 23  1  0
 11 24  1  0
 12 25  1  0
 12 26  1  0
 13 27  1  0
 15 28  1  0
 15 29  1  0
 15 30  1  0
M  END
>  <loss>  (23) 
0.8504354953765869

>  <score>  (23) 
2.580955982208252

$$$$
VFRGNRZIYZQAOC-UHFFFAOYSA-N
     RDKit          3D

 30 30  0  0  0  0  0  0  0  0999 V2000
  125.7769  123.1174   85.5025 C   0  0  0  0  0  0  0  0  0  0  0  0
  124.9984  122.3741   86.5527 C   0  0  0  0  0  0  0  0  0  0  0  0
  123.6519  122.0602   86.3175 C   0  0  0  0  0  0  0  0  0  0  0  0
  122.9040  121.3685   87.2728 C   0  0  0  0  0  0  0  0  0  0  0  0
  123.4760  120.9876   88.4860 C   0  0  0  0  0  0  0  0  0  0  0  0
  122.6949  120.2671   89.4031 N   0  0  0  0  0  0  0  0  0  0  0  0
  121.8648  120.8626   90.2066 C   0  0  0  0  0  0  0  0  0  0  0  0
  121.1960  120.1067   91.1139 N   0  0  0  0  0  0  0  0  0  0  0  0
  121.6544  122.2070   90.2360 N   0  0  0  0  0  0  0  0  0  0  0  0
  120.7044  122.6573   90.9791 C   0  0  0  0  0  0  0  0  0  0  0  0
  120.4615  123.9872   91.0490 N   0  0  0  0  0  0  0  0  0  0  0  0
  119.8373  121.9937   91.7813 N   0  0  0  0  0  0  0  0  0  0  0  0
  124.8269  121.2712   88.7096 C   0  0  0  0  0  0  0  0  0  0  0  0
  125.5970  121.9676   87.7614 C   0  0  0  0  0  0  0  0  0  0  0  0
  127.0395  122.2645   88.0642 C   0  0  0  0  0  0  0  0  0  0  0  0
  126.4905  123.7988   85.9887 H   0  0  0  0  0  0  0  0  0  0  0  0
  126.3251  122.3990   84.8753 H   0  0  0  0  0  0  0  0  0  0  0  0
  125.0846  123.6982   84.8753 H   0  0  0  0  0  0  0  0  0  0  0  0
  123.1800  122.3618   85.3708 H   0  0  0  0  0  0  0  0  0  0  0  0
  121.8523  121.1216   87.0659 H   0  0  0  0  0  0  0  0  0  0  0  0
  120.5316  120.5503   91.7640 H   0  0  0  0  0  0  0  0  0  0  0  0
  121.3528  119.0895   91.1523 H   0  0  0  0  0  0  0  0  0  0  0  0
  119.6999  124.3409   91.6454 H   0  0  0  0  0  0  0  0  0  0  0  0
  121.0382  124.6453   90.5057 H   0  0  0  0  0  0  0  0  0  0  0  0
  119.1275  122.5152   92.3153 H   0  0  0  0  0  0  0  0  0  0  0  0
  119.8879  120.9678   91.8573 H   0  0  0  0  0  0  0  0  0  0  0  0
  125.2975  120.9424   89.6479 H   0  0  0  0  0  0  0  0  0  0  0  0
  127.1867  122.2948   89.1539 H   0  0  0  0  0  0  0  0  0  0  0  0
  127.6747  121.4783   87.6302 H   0  0  0  0  0  0  0  0  0  0  0  0
  127.3125  123.2377   87.6302 H   0  0  0  0  0  0  0  0  0  0  0  0
  1  2  1  0
  2  3  2  0
  3  4  1  0
  4  5  2  0
  5  6  1  0
  6  7  2  3
  7  8  1  0
  7  9  1  0
  9 10  2  3
 10 11  1  0
 10 12  1  0
  5 13  1  0
 13 14  2  0
 14 15  1  0
 14  2  1  0
  1 16  1  0
  1 17  1  0
  1 18  1  0
  3 19  1  0
  4 20  1  0
  8 21  1  0
  8 22  1  0
 11 23  1  0
 11 24  1  0
 12 25  1  0
 12 26  1  0
 13 27  1  0
 15 28  1  0
 15 29  1  0
 15 30  1  0
M  END
>  <loss>  (24) 
0.668124794960022

>  <score>  (24) 
0.7967700958251953

$$$$
VFRGNRZIYZQAOC-UHFFFAOYSA-N
     RDKit          3D

 30 30  0  0  0  0  0  0  0  0999 V2000
  126.7231  121.2856   87.1081 C   0  0  0  0  0  0  0  0  0  0  0  0
  125.3229  121.4339   87.6375 C   0  0  0  0  0  0  0  0  0  0  0  0
  124.9161  120.6547   88.7315 C   0  0  0  0  0  0  0  0  0  0  0  0
  123.6224  120.7650   89.2437 C   0  0  0  0  0  0  0  0  0  0  0  0
  122.7159  121.6623   88.6814 C   0  0  0  0  0  0  0  0  0  0  0  0
  121.4100  121.7752   89.1762 N   0  0  0  0  0  0  0  0  0  0  0  0
  121.1684  121.4780   90.4168 C   0  0  0  0  0  0  0  0  0  0  0  0
  122.0859  121.0965   91.3472 N   0  0  0  0  0  0  0  0  0  0  0  0
  119.8927  121.6054   90.8889 N   0  0  0  0  0  0  0  0  0  0  0  0
  118.8876  121.6023   90.0798 C   0  0  0  0  0  0  0  0  0  0  0  0
  118.8805  121.4656   88.7325 N   0  0  0  0  0  0  0  0  0  0  0  0
  117.6324  121.6998   90.5767 N   0  0  0  0  0  0  0  0  0  0  0  0
  123.1081  122.4268   87.5805 C   0  0  0  0  0  0  0  0  0  0  0  0
  124.4059  122.3290   87.0508 C   0  0  0  0  0  0  0  0  0  0  0  0
  124.7821  123.1756   85.8661 C   0  0  0  0  0  0  0  0  0  0  0  0
  127.4273  121.2110   87.9499 H   0  0  0  0  0  0  0  0  0  0  0  0
  126.7884  120.3755   86.4937 H   0  0  0  0  0  0  0  0  0  0  0  0
  126.9775  122.1618   86.4937 H   0  0  0  0  0  0  0  0  0  0  0  0
  125.6246  119.9493   89.1903 H   0  0  0  0  0  0  0  0  0  0  0  0
  123.3164  120.1404   90.0959 H   0  0  0  0  0  0  0  0  0  0  0  0
  121.7857  120.8825   92.3090 H   0  0  0  0  0  0  0  0  0  0  0  0
  123.0803  121.0219   91.0895 H   0  0  0  0  0  0  0  0  0  0  0  0
  117.9886  121.4836   88.2177 H   0  0  0  0  0  0  0  0  0  0  0  0
  119.7671  121.3437   88.2225 H   0  0  0  0  0  0  0  0  0  0  0  0
  116.8242  121.6981   89.9381 H   0  0  0  0  0  0  0  0  0  0  0  0
  117.4853  121.7756   91.5933 H   0  0  0  0  0  0  0  0  0  0  0  0
  122.3876  123.1184   87.1194 H   0  0  0  0  0  0  0  0  0  0  0  0
  125.2056  124.1286   86.2161 H   0  0  0  0  0  0  0  0  0  0  0  0
  125.5287  122.6440   85.2578 H   0  0  0  0  0  0  0  0  0  0  0  0
  123.8872  123.3735   85.2578 H   0  0  0  0  0  0  0  0  0  0  0  0
  1  2  1  0
  2  3  2  0
  3  4  1  0
  4  5  2  0
  5  6  1  0
  6  7  2  3
  7  8  1  0
  7  9  1  0
  9 10  2  3
 10 11  1  0
 10 12  1  0
  5 13  1  0
 13 14  2  0
 14 15  1  0
 14  2  1  0
  1 16  1  0
  1 17  1  0
  1 18  1  0
  3 19  1  0
  4 20  1  0
  8 21  1  0
  8 22  1  0
 11 23  1  0
 11 24  1  0
 12 25  1  0
 12 26  1  0
 13 27  1  0
 15 28  1  0
 15 29  1  0
 15 30  1  0
M  END
>  <loss>  (25) 
0.8587523698806763

>  <score>  (25) 
1.340324878692627

$$$$
