WABUYJXRDJWTKO-UHFFFAOYSA-N
     RDKit          3D

 31 31  0  0  0  0  0  0  0  0999 V2000
  118.2261  121.6650   81.4157 C   0  0  0  0  0  0  0  0  0  0  0  0
  119.2516  122.5343   81.8991 O   0  0  0  0  0  0  0  0  0  0  0  0
  118.8972  123.2396   83.0126 C   0  0  0  0  0  0  0  0  0  0  0  0
  117.7561  123.3454   83.4452 O   0  0  0  0  0  0  0  0  0  0  0  0
  120.1288  123.9108   83.6166 C   0  0  0  0  0  0  0  0  0  0  0  0
  120.2526  123.5949   85.0498 N   0  0  0  0  0  0  0  0  0  0  0  0
  121.4764  123.1868   85.5913 C   0  0  0  0  0  0  0  0  0  0  0  0
  122.6458  123.1740   84.8131 C   0  0  0  0  0  0  0  0  0  0  0  0
  123.8622  122.6830   85.3103 C   0  0  0  0  0  0  0  0  0  0  0  0
  123.9465  122.1566   86.6024 C   0  0  0  0  0  0  0  0  0  0  0  0
  125.2645  121.6497   87.0726 C   0  0  0  0  0  0  0  0  0  0  0  0
  126.2010  121.4200   86.3247 O   0  0  0  0  0  0  0  0  0  0  0  0
  125.2619  121.4945   88.4187 O   0  0  0  0  0  0  0  0  0  0  0  0
  126.5624  121.5252   89.0099 C   0  0  0  0  0  0  0  0  0  0  0  0
  122.7970  122.1161   87.3924 C   0  0  0  0  0  0  0  0  0  0  0  0
  121.5831  122.6155   86.8811 C   0  0  0  0  0  0  0  0  0  0  0  0
  120.4162  122.5354   87.7588 N   0  0  0  0  0  4  0  0  0  0  0  0
  119.5414  123.4057   87.6354 O   0  0  0  0  0  0  0  0  0  0  0  0
  120.3922  121.6180   88.5923 O   0  0  0  0  0  1  0  0  0  0  0  0
  117.6952  121.2150   82.2675 H   0  0  0  0  0  0  0  0  0  0  0  0
  117.5160  122.2404   80.8036 H   0  0  0  0  0  0  0  0  0  0  0  0
  118.6775  120.8702   80.8036 H   0  0  0  0  0  0  0  0  0  0  0  0
  121.0268  123.5545   83.0908 H   0  0  0  0  0  0  0  0  0  0  0  0
  120.0240  125.0002   83.5056 H   0  0  0  0  0  0  0  0  0  0  0  0
  119.4276  123.6754   85.6613 H   0  0  0  0  0  0  0  0  0  0  0  0
  122.6066  123.5602   83.7838 H   0  0  0  0  0  0  0  0  0  0  0  0
  124.7602  122.7126   84.6758 H   0  0  0  0  0  0  0  0  0  0  0  0
  126.4671  121.5230   90.1058 H   0  0  0  0  0  0  0  0  0  0  0  0
  127.1318  120.6403   88.6895 H   0  0  0  0  0  0  0  0  0  0  0  0
  127.0893  122.4361   88.6895 H   0  0  0  0  0  0  0  0  0  0  0  0
  122.8385  121.6967   88.4084 H   0  0  0  0  0  0  0  0  0  0  0  0
  1  2  1  0
  2  3  1  0
  3  4  2  0
  3  5  1  0
  5  6  1  0
  6  7  1  0
  7  8  2  0
  8  9  1  0
  9 10  2  0
 10 11  1  0
 11 12  2  0
 11 13  1  0
 13 14  1  0
 10 15  1  0
 15 16  2  0
 16 17  1  0
 17 18  2  0
 17 19  1  0
 16  7  1  0
  1 20  1  0
  1 21  1  0
  1 22  1  0
  5 23  1  0
  5 24  1  0
  6 25  1  0
  8 26  1  0
  9 27  1  0
 14 28  1  0
 14 29  1  0
 14 30  1  0
 15 31  1  0
M  CHG  2  17   1  19  -1
M  END
>  <loss>  (1) 
0.3799838423728943

>  <score>  (1) 
3.3283138275146484

$$$$
WABUYJXRDJWTKO-UHFFFAOYSA-N
     RDKit          3D

 31 31  0  0  0  0  0  0  0  0999 V2000
  118.2575  121.6352   81.4264 C   0  0  0  0  0  0  0  0  0  0  0  0
  119.2257  122.5849   81.8756 O   0  0  0  0  0  0  0  0  0  0  0  0
  118.8683  123.2370   83.0204 C   0  0  0  0  0  0  0  0  0  0  0  0
  117.7312  123.2947   83.4717 O   0  0  0  0  0  0  0  0  0  0  0  0
  120.0903  123.9175   83.6334 C   0  0  0  0  0  0  0  0  0  0  0  0
  120.2318  123.5668   85.0568 N   0  0  0  0  0  0  0  0  0  0  0  0
  121.4699  123.1779   85.5802 C   0  0  0  0  0  0  0  0  0  0  0  0
  122.6264  123.1752   84.7820 C   0  0  0  0  0  0  0  0  0  0  0  0
  123.8594  122.7043   85.2596 C   0  0  0  0  0  0  0  0  0  0  0  0
  123.9709  122.1892   86.5540 C   0  0  0  0  0  0  0  0  0  0  0  0
  125.2555  121.6813   87.1072 C   0  0  0  0  0  0  0  0  0  0  0  0
  126.2293  121.4316   86.4156 O   0  0  0  0  0  0  0  0  0  0  0  0
  125.1769  121.5427   88.4533 O   0  0  0  0  0  0  0  0  0  0  0  0
  126.4385  121.3232   89.0872 C   0  0  0  0  0  0  0  0  0  0  0  0
  122.8346  122.1394   87.3632 C   0  0  0  0  0  0  0  0  0  0  0  0
  121.6056  122.6169   86.8714 C   0  0  0  0  0  0  0  0  0  0  0  0
  120.4552  122.5266   87.7685 N   0  0  0  0  0  4  0  0  0  0  0  0
  119.6883  123.5001   87.8199 O   0  0  0  0  0  0  0  0  0  0  0  0
  120.3349  121.4915   88.4394 O   0  0  0  0  0  1  0  0  0  0  0  0
  117.7763  121.1631   82.2956 H   0  0  0  0  0  0  0  0  0  0  0  0
  117.4964  122.1467   80.8189 H   0  0  0  0  0  0  0  0  0  0  0  0
  118.7544  120.8644   80.8189 H   0  0  0  0  0  0  0  0  0  0  0  0
  120.9915  123.5939   83.0920 H   0  0  0  0  0  0  0  0  0  0  0  0
  119.9619  125.0069   83.5523 H   0  0  0  0  0  0  0  0  0  0  0  0
  119.4089  123.6083   85.6748 H   0  0  0  0  0  0  0  0  0  0  0  0
  122.5635  123.5537   83.7511 H   0  0  0  0  0  0  0  0  0  0  0  0
  124.7459  122.7411   84.6093 H   0  0  0  0  0  0  0  0  0  0  0  0
  126.3089  121.3457   90.1793 H   0  0  0  0  0  0  0  0  0  0  0  0
  126.8349  120.3425   88.7851 H   0  0  0  0  0  0  0  0  0  0  0  0
  127.1429  122.1122   88.7851 H   0  0  0  0  0  0  0  0  0  0  0  0
  122.8996  121.7285   88.3815 H   0  0  0  0  0  0  0  0  0  0  0  0
  1  2  1  0
  2  3  1  0
  3  4  2  0
  3  5  1  0
  5  6  1  0
  6  7  1  0
  7  8  2  0
  8  9  1  0
  9 10  2  0
 10 11  1  0
 11 12  2  0
 11 13  1  0
 13 14  1  0
 10 15  1  0
 15 16  2  0
 16 17  1  0
 17 18  2  0
 17 19  1  0
 16  7  1  0
  1 20  1  0
  1 21  1  0
  1 22  1  0
  5 23  1  0
  5 24  1  0
  6 25  1  0
  8 26  1  0
  9 27  1  0
 14 28  1  0
 14 29  1  0
 14 30  1  0
 15 31  1  0
M  CHG  2  17   1  19  -1
M  END
>  <loss>  (2) 
0.381113737821579

>  <score>  (2) 
3.290914535522461

$$$$
WABUYJXRDJWTKO-UHFFFAOYSA-N
     RDKit          3D

 31 31  0  0  0  0  0  0  0  0999 V2000
  117.3680  122.1662   82.2036 C   0  0  0  0  0  0  0  0  0  0  0  0
  118.0505  123.0640   83.0794 O   0  0  0  0  0  0  0  0  0  0  0  0
  119.3410  123.3255   82.7181 C   0  0  0  0  0  0  0  0  0  0  0  0
  119.8463  123.0067   81.6481 O   0  0  0  0  0  0  0  0  0  0  0  0
  120.0660  124.1363   83.7920 C   0  0  0  0  0  0  0  0  0  0  0  0
  120.1646  123.4077   85.0709 N   0  0  0  0  0  0  0  0  0  0  0  0
  121.4160  123.0653   85.5990 C   0  0  0  0  0  0  0  0  0  0  0  0
  122.5623  123.0363   84.7880 C   0  0  0  0  0  0  0  0  0  0  0  0
  123.8051  122.6083   85.2777 C   0  0  0  0  0  0  0  0  0  0  0  0
  123.9401  122.1631   86.5958 C   0  0  0  0  0  0  0  0  0  0  0  0
  125.2845  121.7205   87.0563 C   0  0  0  0  0  0  0  0  0  0  0  0
  126.2555  121.6472   86.3210 O   0  0  0  0  0  0  0  0  0  0  0  0
  125.2615  121.4273   88.3791 O   0  0  0  0  0  0  0  0  0  0  0  0
  126.5309  121.5499   89.0235 C   0  0  0  0  0  0  0  0  0  0  0  0
  122.8145  122.1394   87.4206 C   0  0  0  0  0  0  0  0  0  0  0  0
  121.5730  122.5745   86.9172 C   0  0  0  0  0  0  0  0  0  0  0  0
  120.4312  122.5154   87.8311 N   0  0  0  0  0  4  0  0  0  0  0  0
  119.5965  123.4317   87.7735 O   0  0  0  0  0  0  0  0  0  0  0  0
  120.3840  121.5645   88.6249 O   0  0  0  0  0  1  0  0  0  0  0  0
  116.8078  121.4293   82.7979 H   0  0  0  0  0  0  0  0  0  0  0  0
  116.6702  122.7323   81.5692 H   0  0  0  0  0  0  0  0  0  0  0  0
  118.1002  121.6453   81.5692 H   0  0  0  0  0  0  0  0  0  0  0  0
  121.0812  124.3664   83.4366 H   0  0  0  0  0  0  0  0  0  0  0  0
  119.4859  125.0537   83.9706 H   0  0  0  0  0  0  0  0  0  0  0  0
  119.3070  123.1489   85.5793 H   0  0  0  0  0  0  0  0  0  0  0  0
  122.4832  123.3582   83.7392 H   0  0  0  0  0  0  0  0  0  0  0  0
  124.6840  122.6232   84.6164 H   0  0  0  0  0  0  0  0  0  0  0  0
  126.3912  121.5364   90.1145 H   0  0  0  0  0  0  0  0  0  0  0  0
  127.1758  120.7099   88.7260 H   0  0  0  0  0  0  0  0  0  0  0  0
  127.0031  122.4978   88.7260 H   0  0  0  0  0  0  0  0  0  0  0  0
  122.8964  121.7829   88.4580 H   0  0  0  0  0  0  0  0  0  0  0  0
  1  2  1  0
  2  3  1  0
  3  4  2  0
  3  5  1  0
  5  6  1  0
  6  7  1  0
  7  8  2  0
  8  9  1  0
  9 10  2  0
 10 11  1  0
 11 12  2  0
 11 13  1  0
 13 14  1  0
 10 15  1  0
 15 16  2  0
 16 17  1  0
 17 18  2  0
 17 19  1  0
 16  7  1  0
  1 20  1  0
  1 21  1  0
  1 22  1  0
  5 23  1  0
  5 24  1  0
  6 25  1  0
  8 26  1  0
  9 27  1  0
 14 28  1  0
 14 29  1  0
 14 30  1  0
 15 31  1  0
M  CHG  2  17   1  19  -1
M  END
>  <loss>  (3) 
0.38164031505584717

>  <score>  (3) 
3.2747325897216797

$$$$
WABUYJXRDJWTKO-UHFFFAOYSA-N
     RDKit          3D

 31 31  0  0  0  0  0  0  0  0999 V2000
  118.2851  121.6704   81.3941 C   0  0  0  0  0  0  0  0  0  0  0  0
  119.2263  122.6313   81.8759 O   0  0  0  0  0  0  0  0  0  0  0  0
  118.8525  123.2352   83.0430 C   0  0  0  0  0  0  0  0  0  0  0  0
  117.7183  123.2214   83.5040 O   0  0  0  0  0  0  0  0  0  0  0  0
  120.0579  123.9460   83.6582 C   0  0  0  0  0  0  0  0  0  0  0  0
  120.2523  123.6329   85.0879 N   0  0  0  0  0  0  0  0  0  0  0  0
  121.4673  123.0902   85.5456 C   0  0  0  0  0  0  0  0  0  0  0  0
  122.6387  123.1705   84.7738 C   0  0  0  0  0  0  0  0  0  0  0  0
  123.8741  122.7019   85.2470 C   0  0  0  0  0  0  0  0  0  0  0  0
  123.9860  122.1619   86.5307 C   0  0  0  0  0  0  0  0  0  0  0  0
  125.2724  121.6493   87.0756 C   0  0  0  0  0  0  0  0  0  0  0  0
  126.2520  121.4273   86.3826 O   0  0  0  0  0  0  0  0  0  0  0  0
  125.1896  121.4741   88.4173 O   0  0  0  0  0  0  0  0  0  0  0  0
  126.4538  121.4946   89.0827 C   0  0  0  0  0  0  0  0  0  0  0  0
  122.8529  122.1095   87.3445 C   0  0  0  0  0  0  0  0  0  0  0  0
  121.6184  122.5817   86.8595 C   0  0  0  0  0  0  0  0  0  0  0  0
  120.4772  122.5205   87.7784 N   0  0  0  0  0  4  0  0  0  0  0  0
  119.6086  123.4025   87.6885 O   0  0  0  0  0  0  0  0  0  0  0  0
  120.4446  121.5818   88.5876 O   0  0  0  0  0  1  0  0  0  0  0  0
  117.7988  121.1740   82.2468 H   0  0  0  0  0  0  0  0  0  0  0  0
  117.5243  122.1772   80.7823 H   0  0  0  0  0  0  0  0  0  0  0  0
  118.8075  120.9203   80.7823 H   0  0  0  0  0  0  0  0  0  0  0  0
  120.9608  123.6421   83.1082 H   0  0  0  0  0  0  0  0  0  0  0  0
  119.8721  125.0276   83.5835 H   0  0  0  0  0  0  0  0  0  0  0  0
  119.4906  123.8137   85.7573 H   0  0  0  0  0  0  0  0  0  0  0  0
  122.5860  123.6140   83.7685 H   0  0  0  0  0  0  0  0  0  0  0  0
  124.7626  122.7603   84.6012 H   0  0  0  0  0  0  0  0  0  0  0  0
  126.2953  121.4920   90.1712 H   0  0  0  0  0  0  0  0  0  0  0  0
  127.0343  120.6058   88.7946 H   0  0  0  0  0  0  0  0  0  0  0  0
  127.0052  122.4018   88.7946 H   0  0  0  0  0  0  0  0  0  0  0  0
  122.9245  121.6999   88.3629 H   0  0  0  0  0  0  0  0  0  0  0  0
  1  2  1  0
  2  3  1  0
  3  4  2  0
  3  5  1  0
  5  6  1  0
  6  7  1  0
  7  8  2  0
  8  9  1  0
  9 10  2  0
 10 11  1  0
 11 12  2  0
 11 13  1  0
 13 14  1  0
 10 15  1  0
 15 16  2  0
 16 17  1  0
 17 18  2  0
 17 19  1  0
 16  7  1  0
  1 20  1  0
  1 21  1  0
  1 22  1  0
  5 23  1  0
  5 24  1  0
  6 25  1  0
  8 26  1  0
  9 27  1  0
 14 28  1  0
 14 29  1  0
 14 30  1  0
 15 31  1  0
M  CHG  2  17   1  19  -1
M  END
>  <loss>  (4) 
0.38107848167419434

>  <score>  (4) 
3.2536604404449463

$$$$
WABUYJXRDJWTKO-UHFFFAOYSA-N
     RDKit          3D

 31 31  0  0  0  0  0  0  0  0999 V2000
  117.2605  122.1763   82.3577 C   0  0  0  0  0  0  0  0  0  0  0  0
  118.0448  123.0457   83.1749 O   0  0  0  0  0  0  0  0  0  0  0  0
  119.3508  123.1483   82.7902 C   0  0  0  0  0  0  0  0  0  0  0  0
  119.8222  122.6504   81.7744 O   0  0  0  0  0  0  0  0  0  0  0  0
  120.1468  124.0295   83.7525 C   0  0  0  0  0  0  0  0  0  0  0  0
  120.2348  123.4437   85.1036 N   0  0  0  0  0  0  0  0  0  0  0  0
  121.4765  123.0819   85.6417 C   0  0  0  0  0  0  0  0  0  0  0  0
  122.6325  123.0549   84.8444 C   0  0  0  0  0  0  0  0  0  0  0  0
  123.8652  122.6082   85.3427 C   0  0  0  0  0  0  0  0  0  0  0  0
  123.9799  122.1416   86.6554 C   0  0  0  0  0  0  0  0  0  0  0  0
  125.3145  121.6799   87.1255 C   0  0  0  0  0  0  0  0  0  0  0  0
  126.2804  121.5586   86.3898 O   0  0  0  0  0  0  0  0  0  0  0  0
  125.2893  121.4294   88.4570 O   0  0  0  0  0  0  0  0  0  0  0  0
  126.5640  121.0952   89.0094 C   0  0  0  0  0  0  0  0  0  0  0  0
  122.8439  122.1156   87.4658 C   0  0  0  0  0  0  0  0  0  0  0  0
  121.6127  122.5697   86.9540 C   0  0  0  0  0  0  0  0  0  0  0  0
  120.4592  122.5069   87.8527 N   0  0  0  0  0  4  0  0  0  0  0  0
  119.6365  123.4345   87.8030 O   0  0  0  0  0  0  0  0  0  0  0  0
  120.3907  121.5415   88.6271 O   0  0  0  0  0  1  0  0  0  0  0  0
  116.6615  121.5123   82.9983 H   0  0  0  0  0  0  0  0  0  0  0  0
  116.5910  122.7750   81.7226 H   0  0  0  0  0  0  0  0  0  0  0  0
  117.9248  121.5718   81.7226 H   0  0  0  0  0  0  0  0  0  0  0  0
  121.1645  124.1578   83.3554 H   0  0  0  0  0  0  0  0  0  0  0  0
  119.6244  124.9938   83.8367 H   0  0  0  0  0  0  0  0  0  0  0  0
  119.3770  123.2998   85.6553 H   0  0  0  0  0  0  0  0  0  0  0  0
  122.5693  123.3935   83.7998 H   0  0  0  0  0  0  0  0  0  0  0  0
  124.7524  122.6252   84.6926 H   0  0  0  0  0  0  0  0  0  0  0  0
  126.5033  121.1111   90.1076 H   0  0  0  0  0  0  0  0  0  0  0  0
  126.8572  120.0897   88.6729 H   0  0  0  0  0  0  0  0  0  0  0  0
  127.3128  121.8273   88.6729 H   0  0  0  0  0  0  0  0  0  0  0  0
  122.9098  121.7425   88.4985 H   0  0  0  0  0  0  0  0  0  0  0  0
  1  2  1  0
  2  3  1  0
  3  4  2  0
  3  5  1  0
  5  6  1  0
  6  7  1  0
  7  8  2  0
  8  9  1  0
  9 10  2  0
 10 11  1  0
 11 12  2  0
 11 13  1  0
 13 14  1  0
 10 15  1  0
 15 16  2  0
 16 17  1  0
 17 18  2  0
 17 19  1  0
 16  7  1  0
  1 20  1  0
  1 21  1  0
  1 22  1  0
  5 23  1  0
  5 24  1  0
  6 25  1  0
  8 26  1  0
  9 27  1  0
 14 28  1  0
 14 29  1  0
 14 30  1  0
 15 31  1  0
M  CHG  2  17   1  19  -1
M  END
>  <loss>  (5) 
0.41930389404296875

>  <score>  (5) 
3.387770414352417

$$$$
WABUYJXRDJWTKO-UHFFFAOYSA-N
     RDKit          3D

 31 31  0  0  0  0  0  0  0  0999 V2000
  118.7646  122.2768   80.7349 C   0  0  0  0  0  0  0  0  0  0  0  0
  118.6080  122.1695   82.1509 O   0  0  0  0  0  0  0  0  0  0  0  0
  119.1339  123.2205   82.8452 C   0  0  0  0  0  0  0  0  0  0  0  0
  119.3536  124.3321   82.3799 O   0  0  0  0  0  0  0  0  0  0  0  0
  119.4452  122.7934   84.2779 C   0  0  0  0  0  0  0  0  0  0  0  0
  120.3764  123.7371   84.9195 N   0  0  0  0  0  0  0  0  0  0  0  0
  121.5830  123.2916   85.4702 C   0  0  0  0  0  0  0  0  0  0  0  0
  122.7576  123.2441   84.7013 C   0  0  0  0  0  0  0  0  0  0  0  0
  123.9545  122.7160   85.2075 C   0  0  0  0  0  0  0  0  0  0  0  0
  124.0126  122.1861   86.4996 C   0  0  0  0  0  0  0  0  0  0  0  0
  125.3109  121.6391   86.9797 C   0  0  0  0  0  0  0  0  0  0  0  0
  126.2883  121.5025   86.2619 O   0  0  0  0  0  0  0  0  0  0  0  0
  125.2398  121.3324   88.2976 O   0  0  0  0  0  0  0  0  0  0  0  0
  126.4808  121.4659   88.9931 C   0  0  0  0  0  0  0  0  0  0  0  0
  122.8562  122.1797   87.2804 C   0  0  0  0  0  0  0  0  0  0  0  0
  121.6620  122.7161   86.7602 C   0  0  0  0  0  0  0  0  0  0  0  0
  120.4863  122.6705   87.6285 N   0  0  0  0  0  4  0  0  0  0  0  0
  119.6870  123.6167   87.5665 O   0  0  0  0  0  0  0  0  0  0  0  0
  120.3809  121.7013   88.3942 O   0  0  0  0  0  1  0  0  0  0  0  0
  119.6526  122.8855   80.5093 H   0  0  0  0  0  0  0  0  0  0  0  0
  118.8887  121.2730   80.3026 H   0  0  0  0  0  0  0  0  0  0  0  0
  117.8731  122.7546   80.3026 H   0  0  0  0  0  0  0  0  0  0  0  0
  118.5095  122.7626   84.8555 H   0  0  0  0  0  0  0  0  0  0  0  0
  119.9155  121.7993   84.2529 H   0  0  0  0  0  0  0  0  0  0  0  0
  120.1362  124.7377   84.9634 H   0  0  0  0  0  0  0  0  0  0  0  0
  122.7383  123.6323   83.6722 H   0  0  0  0  0  0  0  0  0  0  0  0
  124.8581  122.7190   84.5802 H   0  0  0  0  0  0  0  0  0  0  0  0
  126.2973  121.4461   90.0776 H   0  0  0  0  0  0  0  0  0  0  0  0
  127.1463  120.6341   88.7187 H   0  0  0  0  0  0  0  0  0  0  0  0
  126.9542  122.4201   88.7187 H   0  0  0  0  0  0  0  0  0  0  0  0
  122.8769  121.7582   88.2963 H   0  0  0  0  0  0  0  0  0  0  0  0
  1  2  1  0
  2  3  1  0
  3  4  2  0
  3  5  1  0
  5  6  1  0
  6  7  1  0
  7  8  2  0
  8  9  1  0
  9 10  2  0
 10 11  1  0
 11 12  2  0
 11 13  1  0
 13 14  1  0
 10 15  1  0
 15 16  2  0
 16 17  1  0
 17 18  2  0
 17 19  1  0
 16  7  1  0
  1 20  1  0
  1 21  1  0
  1 22  1  0
  5 23  1  0
  5 24  1  0
  6 25  1  0
  8 26  1  0
  9 27  1  0
 14 28  1  0
 14 29  1  0
 14 30  1  0
 15 31  1  0
M  CHG  2  17   1  19  -1
M  END
>  <loss>  (6) 
0.40656065940856934

>  <score>  (6) 
3.2202374935150146

$$$$
WABUYJXRDJWTKO-UHFFFAOYSA-N
     RDKit          3D

 31 31  0  0  0  0  0  0  0  0999 V2000
  118.1998  121.6504   81.4818 C   0  0  0  0  0  0  0  0  0  0  0  0
  119.2626  122.4746   81.9638 O   0  0  0  0  0  0  0  0  0  0  0  0
  118.9360  123.2048   83.0699 C   0  0  0  0  0  0  0  0  0  0  0  0
  117.8039  123.3330   83.5197 O   0  0  0  0  0  0  0  0  0  0  0  0
  120.1860  123.8713   83.6404 C   0  0  0  0  0  0  0  0  0  0  0  0
  120.3149  123.6042   85.0830 N   0  0  0  0  0  0  0  0  0  0  0  0
  121.5322  123.1822   85.6285 C   0  0  0  0  0  0  0  0  0  0  0  0
  122.7060  123.1654   84.8569 C   0  0  0  0  0  0  0  0  0  0  0  0
  123.9154  122.6609   85.3575 C   0  0  0  0  0  0  0  0  0  0  0  0
  123.9880  122.1245   86.6462 C   0  0  0  0  0  0  0  0  0  0  0  0
  125.2991  121.6034   87.1202 C   0  0  0  0  0  0  0  0  0  0  0  0
  126.2390  121.3744   86.3763 O   0  0  0  0  0  0  0  0  0  0  0  0
  125.2861  121.4347   88.4646 O   0  0  0  0  0  0  0  0  0  0  0  0
  126.5638  121.1241   89.0237 C   0  0  0  0  0  0  0  0  0  0  0  0
  122.8337  122.0877   87.4292 C   0  0  0  0  0  0  0  0  0  0  0  0
  121.6268  122.6007   86.9148 C   0  0  0  0  0  0  0  0  0  0  0  0
  120.4542  122.5237   87.7852 N   0  0  0  0  0  4  0  0  0  0  0  0
  119.5772  123.3897   87.6484 O   0  0  0  0  0  0  0  0  0  0  0  0
  120.4279  121.6133   88.6262 O   0  0  0  0  0  1  0  0  0  0  0  0
  117.6505  121.2245   82.3343 H   0  0  0  0  0  0  0  0  0  0  0  0
  117.5149  122.2559   80.8699 H   0  0  0  0  0  0  0  0  0  0  0  0
  118.6157  120.8364   80.8699 H   0  0  0  0  0  0  0  0  0  0  0  0
  121.0723  123.4777   83.1211 H   0  0  0  0  0  0  0  0  0  0  0  0
  120.1028  124.9579   83.4912 H   0  0  0  0  0  0  0  0  0  0  0  0
  119.4984  123.7297   85.6983 H   0  0  0  0  0  0  0  0  0  0  0  0
  122.6758  123.5594   83.8303 H   0  0  0  0  0  0  0  0  0  0  0  0
  124.8173  122.6878   84.7284 H   0  0  0  0  0  0  0  0  0  0  0  0
  126.4974  121.1403   90.1216 H   0  0  0  0  0  0  0  0  0  0  0  0
  126.8767  120.1237   88.6900 H   0  0  0  0  0  0  0  0  0  0  0  0
  127.3010  121.8692   88.6900 H   0  0  0  0  0  0  0  0  0  0  0  0
  122.8659  121.6605   88.4424 H   0  0  0  0  0  0  0  0  0  0  0  0
  1  2  1  0
  2  3  1  0
  3  4  2  0
  3  5  1  0
  5  6  1  0
  6  7  1  0
  7  8  2  0
  8  9  1  0
  9 10  2  0
 10 11  1  0
 11 12  2  0
 11 13  1  0
 13 14  1  0
 10 15  1  0
 15 16  2  0
 16 17  1  0
 17 18  2  0
 17 19  1  0
 16  7  1  0
  1 20  1  0
  1 21  1  0
  1 22  1  0
  5 23  1  0
  5 24  1  0
  6 25  1  0
  8 26  1  0
  9 27  1  0
 14 28  1  0
 14 29  1  0
 14 30  1  0
 15 31  1  0
M  CHG  2  17   1  19  -1
M  END
>  <loss>  (7) 
0.4226069748401642

>  <score>  (7) 
3.2910215854644775

$$$$
WABUYJXRDJWTKO-UHFFFAOYSA-N
     RDKit          3D

 31 31  0  0  0  0  0  0  0  0999 V2000
  117.6010  122.1463   81.8952 C   0  0  0  0  0  0  0  0  0  0  0  0
  118.2408  122.9313   82.9018 O   0  0  0  0  0  0  0  0  0  0  0  0
  119.4753  123.3956   82.5490 C   0  0  0  0  0  0  0  0  0  0  0  0
  119.9804  123.2673   81.4398 O   0  0  0  0  0  0  0  0  0  0  0  0
  120.1285  124.1664   83.6958 C   0  0  0  0  0  0  0  0  0  0  0  0
  120.2219  123.3614   84.9284 N   0  0  0  0  0  0  0  0  0  0  0  0
  121.4714  123.0398   85.4742 C   0  0  0  0  0  0  0  0  0  0  0  0
  122.6214  122.9831   84.6700 C   0  0  0  0  0  0  0  0  0  0  0  0
  123.8624  122.5746   85.1803 C   0  0  0  0  0  0  0  0  0  0  0  0
  123.9918  122.1772   86.5142 C   0  0  0  0  0  0  0  0  0  0  0  0
  125.3346  121.7532   86.9964 C   0  0  0  0  0  0  0  0  0  0  0  0
  126.3058  121.6416   86.2661 O   0  0  0  0  0  0  0  0  0  0  0  0
  125.3101  121.5242   88.3317 O   0  0  0  0  0  0  0  0  0  0  0  0
  126.6039  121.4706   88.9359 C   0  0  0  0  0  0  0  0  0  0  0  0
  122.8625  122.1817   87.3342 C   0  0  0  0  0  0  0  0  0  0  0  0
  121.6229  122.5969   86.8098 C   0  0  0  0  0  0  0  0  0  0  0  0
  120.4770  122.5691   87.7201 N   0  0  0  0  0  4  0  0  0  0  0  0
  119.6822  123.5211   87.6783 O   0  0  0  0  0  0  0  0  0  0  0  0
  120.3870  121.6061   88.4954 O   0  0  0  0  0  1  0  0  0  0  0  0
  116.9748  121.3780   82.3722 H   0  0  0  0  0  0  0  0  0  0  0  0
  116.9714  122.7955   81.2689 H   0  0  0  0  0  0  0  0  0  0  0  0
  118.3639  121.6607   81.2689 H   0  0  0  0  0  0  0  0  0  0  0  0
  121.1423  124.4642   83.3899 H   0  0  0  0  0  0  0  0  0  0  0  0
  119.5011  125.0434   83.9129 H   0  0  0  0  0  0  0  0  0  0  0  0
  119.3622  123.0334   85.3912 H   0  0  0  0  0  0  0  0  0  0  0  0
  122.5467  123.2671   83.6099 H   0  0  0  0  0  0  0  0  0  0  0  0
  124.7443  122.5669   84.5229 H   0  0  0  0  0  0  0  0  0  0  0  0
  126.4978  121.4750   90.0307 H   0  0  0  0  0  0  0  0  0  0  0  0
  127.1178  120.5504   88.6210 H   0  0  0  0  0  0  0  0  0  0  0  0
  127.1920  122.3452   88.6210 H   0  0  0  0  0  0  0  0  0  0  0  0
  122.9401  121.8628   88.3841 H   0  0  0  0  0  0  0  0  0  0  0  0
  1  2  1  0
  2  3  1  0
  3  4  2  0
  3  5  1  0
  5  6  1  0
  6  7  1  0
  7  8  2  0
  8  9  1  0
  9 10  2  0
 10 11  1  0
 11 12  2  0
 11 13  1  0
 13 14  1  0
 10 15  1  0
 15 16  2  0
 16 17  1  0
 17 18  2  0
 17 19  1  0
 16  7  1  0
  1 20  1  0
  1 21  1  0
  1 22  1  0
  5 23  1  0
  5 24  1  0
  6 25  1  0
  8 26  1  0
  9 27  1  0
 14 28  1  0
 14 29  1  0
 14 30  1  0
 15 31  1  0
M  CHG  2  17   1  19  -1
M  END
>  <loss>  (8) 
0.39545539021492004

>  <score>  (8) 
3.1358673572540283

$$$$
WABUYJXRDJWTKO-UHFFFAOYSA-N
     RDKit          3D

 31 31  0  0  0  0  0  0  0  0999 V2000
  118.7731  122.4289   80.8525 C   0  0  0  0  0  0  0  0  0  0  0  0
  118.4821  122.3961   82.2509 O   0  0  0  0  0  0  0  0  0  0  0  0
  119.0787  123.3974   82.9639 C   0  0  0  0  0  0  0  0  0  0  0  0
  119.2883  124.5268   82.5402 O   0  0  0  0  0  0  0  0  0  0  0  0
  119.4124  122.8942   84.3683 C   0  0  0  0  0  0  0  0  0  0  0  0
  120.3246  123.7897   85.1070 N   0  0  0  0  0  0  0  0  0  0  0  0
  121.5480  123.3112   85.6116 C   0  0  0  0  0  0  0  0  0  0  0  0
  122.7190  123.3416   84.8355 C   0  0  0  0  0  0  0  0  0  0  0  0
  123.9295  122.8002   85.2952 C   0  0  0  0  0  0  0  0  0  0  0  0
  124.0018  122.1770   86.5436 C   0  0  0  0  0  0  0  0  0  0  0  0
  125.2622  121.5913   87.0755 C   0  0  0  0  0  0  0  0  0  0  0  0
  126.2188  121.3100   86.3721 O   0  0  0  0  0  0  0  0  0  0  0  0
  125.1843  121.4238   88.4184 O   0  0  0  0  0  0  0  0  0  0  0  0
  126.4526  121.4254   89.0763 C   0  0  0  0  0  0  0  0  0  0  0  0
  122.8471  122.0855   87.3227 C   0  0  0  0  0  0  0  0  0  0  0  0
  121.6381  122.6326   86.8523 C   0  0  0  0  0  0  0  0  0  0  0  0
  120.4601  122.4759   87.7113 N   0  0  0  0  0  4  0  0  0  0  0  0
  119.7597  121.4670   87.5424 O   0  0  0  0  0  0  0  0  0  0  0  0
  120.2371  123.3533   88.5604 O   0  0  0  0  0  1  0  0  0  0  0  0
  119.8565  122.5509   80.7061 H   0  0  0  0  0  0  0  0  0  0  0  0
  118.4440  121.4880   80.3873 H   0  0  0  0  0  0  0  0  0  0  0  0
  118.2430  123.2730   80.3873 H   0  0  0  0  0  0  0  0  0  0  0  0
  118.4760  122.8021   84.9381 H   0  0  0  0  0  0  0  0  0  0  0  0
  119.9249  121.9275   84.2552 H   0  0  0  0  0  0  0  0  0  0  0  0
  120.0628  124.7748   85.2546 H   0  0  0  0  0  0  0  0  0  0  0  0
  122.6860  123.8035   83.8378 H   0  0  0  0  0  0  0  0  0  0  0  0
  124.8297  122.8671   84.6667 H   0  0  0  0  0  0  0  0  0  0  0  0
  126.3006  121.4252   90.1658 H   0  0  0  0  0  0  0  0  0  0  0  0
  127.0181  120.5280   88.7849 H   0  0  0  0  0  0  0  0  0  0  0  0
  127.0157  122.3243   88.7849 H   0  0  0  0  0  0  0  0  0  0  0  0
  122.8817  121.5867   88.3025 H   0  0  0  0  0  0  0  0  0  0  0  0
  1  2  1  0
  2  3  1  0
  3  4  2  0
  3  5  1  0
  5  6  1  0
  6  7  1  0
  7  8  2  0
  8  9  1  0
  9 10  2  0
 10 11  1  0
 11 12  2  0
 11 13  1  0
 13 14  1  0
 10 15  1  0
 15 16  2  0
 16 17  1  0
 17 18  2  0
 17 19  1  0
 16  7  1  0
  1 20  1  0
  1 21  1  0
  1 22  1  0
  5 23  1  0
  5 24  1  0
  6 25  1  0
  8 26  1  0
  9 27  1  0
 14 28  1  0
 14 29  1  0
 14 30  1  0
 15 31  1  0
M  CHG  2  17   1  19  -1
M  END
>  <loss>  (9) 
0.4008744955062866

>  <score>  (9) 
3.153627634048462

$$$$
WABUYJXRDJWTKO-UHFFFAOYSA-N
     RDKit          3D

 31 31  0  0  0  0  0  0  0  0999 V2000
  118.2447  121.8270   81.3461 C   0  0  0  0  0  0  0  0  0  0  0  0
  119.1953  122.7508   81.8792 O   0  0  0  0  0  0  0  0  0  0  0  0
  118.8531  123.2526   83.1031 C   0  0  0  0  0  0  0  0  0  0  0  0
  117.7379  123.1748   83.6024 O   0  0  0  0  0  0  0  0  0  0  0  0
  120.0653  123.9431   83.7281 C   0  0  0  0  0  0  0  0  0  0  0  0
  120.2685  123.5920   85.1477 N   0  0  0  0  0  0  0  0  0  0  0  0
  121.4942  123.0583   85.5872 C   0  0  0  0  0  0  0  0  0  0  0  0
  122.6580  123.1652   84.8071 C   0  0  0  0  0  0  0  0  0  0  0  0
  123.9032  122.7056   85.2631 C   0  0  0  0  0  0  0  0  0  0  0  0
  124.0327  122.1481   86.5377 C   0  0  0  0  0  0  0  0  0  0  0  0
  125.3302  121.6441   87.0642 C   0  0  0  0  0  0  0  0  0  0  0  0
  125.4260  120.9748   88.0799 O   0  0  0  0  0  0  0  0  0  0  0  0
  126.3550  122.0310   86.2655 O   0  0  0  0  0  0  0  0  0  0  0  0
  127.5088  122.4777   86.9802 C   0  0  0  0  0  0  0  0  0  0  0  0
  122.9073  122.0689   87.3598 C   0  0  0  0  0  0  0  0  0  0  0  0
  121.6628  122.5323   86.8921 C   0  0  0  0  0  0  0  0  0  0  0  0
  120.5302  122.4427   87.8193 N   0  0  0  0  0  4  0  0  0  0  0  0
  119.3997  122.7168   87.3865 O   0  0  0  0  0  0  0  0  0  0  0  0
  120.7707  122.0883   88.9827 O   0  0  0  0  0  1  0  0  0  0  0  0
  117.7231  121.3203   82.1714 H   0  0  0  0  0  0  0  0  0  0  0  0
  117.5136  122.3690   80.7282 H   0  0  0  0  0  0  0  0  0  0  0  0
  118.7654  121.0807   80.7282 H   0  0  0  0  0  0  0  0  0  0  0  0
  120.9632  123.6507   83.1640 H   0  0  0  0  0  0  0  0  0  0  0  0
  119.8827  125.0269   83.6830 H   0  0  0  0  0  0  0  0  0  0  0  0
  119.5052  123.7393   85.8234 H   0  0  0  0  0  0  0  0  0  0  0  0
  122.5911  123.6229   83.8091 H   0  0  0  0  0  0  0  0  0  0  0  0
  124.7854  122.7851   84.6110 H   0  0  0  0  0  0  0  0  0  0  0  0
  127.3212  122.4050   88.0616 H   0  0  0  0  0  0  0  0  0  0  0  0
  128.3710  121.8484   86.7146 H   0  0  0  0  0  0  0  0  0  0  0  0
  127.7225  123.5235   86.7146 H   0  0  0  0  0  0  0  0  0  0  0  0
  122.9927  121.6452   88.3713 H   0  0  0  0  0  0  0  0  0  0  0  0
  1  2  1  0
  2  3  1  0
  3  4  2  0
  3  5  1  0
  5  6  1  0
  6  7  1  0
  7  8  2  0
  8  9  1  0
  9 10  2  0
 10 11  1  0
 11 12  2  0
 11 13  1  0
 13 14  1  0
 10 15  1  0
 15 16  2  0
 16 17  1  0
 17 18  2  0
 17 19  1  0
 16  7  1  0
  1 20  1  0
  1 21  1  0
  1 22  1  0
  5 23  1  0
  5 24  1  0
  6 25  1  0
  8 26  1  0
  9 27  1  0
 14 28  1  0
 14 29  1  0
 14 30  1  0
 15 31  1  0
M  CHG  2  17   1  19  -1
M  END
>  <loss>  (10) 
0.4128205478191376

>  <score>  (10) 
3.207653522491455

$$$$
WABUYJXRDJWTKO-UHFFFAOYSA-N
     RDKit          3D

 31 31  0  0  0  0  0  0  0  0999 V2000
  118.3622  121.5442   81.2778 C   0  0  0  0  0  0  0  0  0  0  0  0
  119.2461  122.5698   81.7341 O   0  0  0  0  0  0  0  0  0  0  0  0
  118.8875  123.1129   82.9340 C   0  0  0  0  0  0  0  0  0  0  0  0
  117.7702  123.0454   83.4313 O   0  0  0  0  0  0  0  0  0  0  0  0
  120.0758  123.8517   83.5456 C   0  0  0  0  0  0  0  0  0  0  0  0
  120.2362  123.5079   84.9686 N   0  0  0  0  0  0  0  0  0  0  0  0
  121.4858  123.1433   85.4822 C   0  0  0  0  0  0  0  0  0  0  0  0
  122.6269  123.1153   84.6626 C   0  0  0  0  0  0  0  0  0  0  0  0
  123.8709  122.6671   85.1335 C   0  0  0  0  0  0  0  0  0  0  0  0
  124.0093  122.2007   86.4437 C   0  0  0  0  0  0  0  0  0  0  0  0
  125.3064  121.7185   86.9905 C   0  0  0  0  0  0  0  0  0  0  0  0
  126.3161  121.6045   86.3149 O   0  0  0  0  0  0  0  0  0  0  0  0
  125.1944  121.4339   88.3110 O   0  0  0  0  0  0  0  0  0  0  0  0
  126.4400  121.4352   89.0111 C   0  0  0  0  0  0  0  0  0  0  0  0
  122.8888  122.1767   87.2758 C   0  0  0  0  0  0  0  0  0  0  0  0
  121.6486  122.6311   86.7905 C   0  0  0  0  0  0  0  0  0  0  0  0
  120.5158  122.5698   87.7122 N   0  0  0  0  0  4  0  0  0  0  0  0
  119.7264  123.5264   87.7173 O   0  0  0  0  0  0  0  0  0  0  0  0
  120.4321  121.5758   88.4477 O   0  0  0  0  0  1  0  0  0  0  0  0
  117.9192  121.0301   82.1435 H   0  0  0  0  0  0  0  0  0  0  0  0
  117.5632  121.9928   80.6693 H   0  0  0  0  0  0  0  0  0  0  0  0
  118.9239  120.8201   80.6693 H   0  0  0  0  0  0  0  0  0  0  0  0
  120.9909  123.5724   83.0028 H   0  0  0  0  0  0  0  0  0  0  0  0
  119.8947  124.9337   83.4650 H   0  0  0  0  0  0  0  0  0  0  0  0
  119.4181  123.5361   85.5938 H   0  0  0  0  0  0  0  0  0  0  0  0
  122.5426  123.4550   83.6197 H   0  0  0  0  0  0  0  0  0  0  0  0
  124.7446  122.6830   84.4654 H   0  0  0  0  0  0  0  0  0  0  0  0
  126.2515  121.4350   90.0948 H   0  0  0  0  0  0  0  0  0  0  0  0
  127.0146  120.5376   88.7387 H   0  0  0  0  0  0  0  0  0  0  0  0
  127.0128  122.3339   88.7387 H   0  0  0  0  0  0  0  0  0  0  0  0
  122.9750  121.8041   88.3072 H   0  0  0  0  0  0  0  0  0  0  0  0
  1  2  1  0
  2  3  1  0
  3  4  2  0
  3  5  1  0
  5  6  1  0
  6  7  1  0
  7  8  2  0
  8  9  1  0
  9 10  2  0
 10 11  1  0
 11 12  2  0
 11 13  1  0
 13 14  1  0
 10 15  1  0
 15 16  2  0
 16 17  1  0
 17 18  2  0
 17 19  1  0
 16  7  1  0
  1 20  1  0
  1 21  1  0
  1 22  1  0
  5 23  1  0
  5 24  1  0
  6 25  1  0
  8 26  1  0
  9 27  1  0
 14 28  1  0
 14 29  1  0
 14 30  1  0
 15 31  1  0
M  CHG  2  17   1  19  -1
M  END
>  <loss>  (11) 
0.3956366777420044

>  <score>  (11) 
3.1122758388519287

$$$$
WABUYJXRDJWTKO-UHFFFAOYSA-N
     RDKit          3D

 31 31  0  0  0  0  0  0  0  0999 V2000
  118.0013  121.6676   81.5496 C   0  0  0  0  0  0  0  0  0  0  0  0
  119.0670  122.5105   81.9911 O   0  0  0  0  0  0  0  0  0  0  0  0
  118.7757  123.2225   83.1188 C   0  0  0  0  0  0  0  0  0  0  0  0
  117.6566  123.3525   83.5995 O   0  0  0  0  0  0  0  0  0  0  0  0
  120.0464  123.8660   83.6695 C   0  0  0  0  0  0  0  0  0  0  0  0
  120.2244  123.5472   85.0962 N   0  0  0  0  0  0  0  0  0  0  0  0
  121.4727  123.1571   85.5938 C   0  0  0  0  0  0  0  0  0  0  0  0
  122.6113  123.1476   84.7702 C   0  0  0  0  0  0  0  0  0  0  0  0
  123.8533  122.6753   85.2225 C   0  0  0  0  0  0  0  0  0  0  0  0
  123.9920  122.1655   86.5164 C   0  0  0  0  0  0  0  0  0  0  0  0
  125.2871  121.6564   87.0433 C   0  0  0  0  0  0  0  0  0  0  0  0
  125.3743  120.9470   88.0322 O   0  0  0  0  0  0  0  0  0  0  0  0
  126.3197  122.0905   86.2799 O   0  0  0  0  0  0  0  0  0  0  0  0
  127.4972  122.4068   87.0249 C   0  0  0  0  0  0  0  0  0  0  0  0
  122.8738  122.1226   87.3508 C   0  0  0  0  0  0  0  0  0  0  0  0
  121.6355  122.6014   86.8842 C   0  0  0  0  0  0  0  0  0  0  0  0
  120.5050  122.5183   87.8070 N   0  0  0  0  0  4  0  0  0  0  0  0
  119.6292  123.3926   87.7234 O   0  0  0  0  0  0  0  0  0  0  0  0
  120.5081  121.5925   88.6309 O   0  0  0  0  0  1  0  0  0  0  0  0
  117.4764  121.2524   82.4226 H   0  0  0  0  0  0  0  0  0  0  0  0
  117.2963  122.2551   80.9431 H   0  0  0  0  0  0  0  0  0  0  0  0
  118.4107  120.8462   80.9431 H   0  0  0  0  0  0  0  0  0  0  0  0
  120.9131  123.4899   83.1061 H   0  0  0  0  0  0  0  0  0  0  0  0
  119.9609  124.9574   83.5625 H   0  0  0  0  0  0  0  0  0  0  0  0
  119.4198  123.6123   85.7359 H   0  0  0  0  0  0  0  0  0  0  0  0
  122.5266  123.5217   83.7393 H   0  0  0  0  0  0  0  0  0  0  0  0
  124.7252  122.7067   84.5526 H   0  0  0  0  0  0  0  0  0  0  0  0
  127.2772  122.3477   88.1010 H   0  0  0  0  0  0  0  0  0  0  0  0
  128.2935  121.6907   86.7735 H   0  0  0  0  0  0  0  0  0  0  0  0
  127.8275  123.4255   86.7735 H   0  0  0  0  0  0  0  0  0  0  0  0
  122.9602  121.7159   88.3692 H   0  0  0  0  0  0  0  0  0  0  0  0
  1  2  1  0
  2  3  1  0
  3  4  2  0
  3  5  1  0
  5  6  1  0
  6  7  1  0
  7  8  2  0
  8  9  1  0
  9 10  2  0
 10 11  1  0
 11 12  2  0
 11 13  1  0
 13 14  1  0
 10 15  1  0
 15 16  2  0
 16 17  1  0
 17 18  2  0
 17 19  1  0
 16  7  1  0
  1 20  1  0
  1 21  1  0
  1 22  1  0
  5 23  1  0
  5 24  1  0
  6 25  1  0
  8 26  1  0
  9 27  1  0
 14 28  1  0
 14 29  1  0
 14 30  1  0
 15 31  1  0
M  CHG  2  17   1  19  -1
M  END
>  <loss>  (12) 
0.4040330648422241

>  <score>  (12) 
3.090303421020508

$$$$
WABUYJXRDJWTKO-UHFFFAOYSA-N
     RDKit          3D

 31 31  0  0  0  0  0  0  0  0999 V2000
  118.4809  122.4777   80.9521 C   0  0  0  0  0  0  0  0  0  0  0  0
  118.4516  122.2972   82.3691 O   0  0  0  0  0  0  0  0  0  0  0  0
  118.9593  123.3530   83.0721 C   0  0  0  0  0  0  0  0  0  0  0  0
  119.0021  124.5069   82.6648 O   0  0  0  0  0  0  0  0  0  0  0  0
  119.4334  122.8717   84.4434 C   0  0  0  0  0  0  0  0  0  0  0  0
  120.4022  123.7864   85.0794 N   0  0  0  0  0  0  0  0  0  0  0  0
  121.6145  123.2985   85.6016 C   0  0  0  0  0  0  0  0  0  0  0  0
  122.8042  123.3522   84.8559 C   0  0  0  0  0  0  0  0  0  0  0  0
  124.0047  122.8024   85.3313 C   0  0  0  0  0  0  0  0  0  0  0  0
  124.0483  122.1473   86.5646 C   0  0  0  0  0  0  0  0  0  0  0  0
  125.2972  121.5516   87.1123 C   0  0  0  0  0  0  0  0  0  0  0  0
  125.3735  121.0656   88.2290 O   0  0  0  0  0  0  0  0  0  0  0  0
  126.3037  121.6310   86.2077 O   0  0  0  0  0  0  0  0  0  0  0  0
  127.5251  122.1426   86.7444 C   0  0  0  0  0  0  0  0  0  0  0  0
  122.8750  122.0324   87.3122 C   0  0  0  0  0  0  0  0  0  0  0  0
  121.6762  122.5882   86.8262 C   0  0  0  0  0  0  0  0  0  0  0  0
  120.4778  122.4060   87.6514 N   0  0  0  0  0  4  0  0  0  0  0  0
  119.3960  122.2594   87.0638 O   0  0  0  0  0  0  0  0  0  0  0  0
  120.6150  122.4001   88.8850 O   0  0  0  0  0  1  0  0  0  0  0  0
  118.6531  123.5393   80.7212 H   0  0  0  0  0  0  0  0  0  0  0  0
  119.2926  121.8725   80.5221 H   0  0  0  0  0  0  0  0  0  0  0  0
  117.5195  122.1601   80.5221 H   0  0  0  0  0  0  0  0  0  0  0  0
  118.5577  122.7772   85.1024 H   0  0  0  0  0  0  0  0  0  0  0  0
  119.9439  121.9091   84.2928 H   0  0  0  0  0  0  0  0  0  0  0  0
  120.1887  124.7921   85.1414 H   0  0  0  0  0  0  0  0  0  0  0  0
  122.7943  123.8398   83.8699 H   0  0  0  0  0  0  0  0  0  0  0  0
  124.9201  122.8881   84.7273 H   0  0  0  0  0  0  0  0  0  0  0  0
  127.4792  122.1234   87.8433 H   0  0  0  0  0  0  0  0  0  0  0  0
  128.3652  121.5208   86.4016 H   0  0  0  0  0  0  0  0  0  0  0  0
  127.6712  123.1776   86.4016 H   0  0  0  0  0  0  0  0  0  0  0  0
  122.8870  121.5085   88.2794 H   0  0  0  0  0  0  0  0  0  0  0  0
  1  2  1  0
  2  3  1  0
  3  4  2  0
  3  5  1  0
  5  6  1  0
  6  7  1  0
  7  8  2  0
  8  9  1  0
  9 10  2  0
 10 11  1  0
 11 12  2  0
 11 13  1  0
 13 14  1  0
 10 15  1  0
 15 16  2  0
 16 17  1  0
 17 18  2  0
 17 19  1  0
 16  7  1  0
  1 20  1  0
  1 21  1  0
  1 22  1  0
  5 23  1  0
  5 24  1  0
  6 25  1  0
  8 26  1  0
  9 27  1  0
 14 28  1  0
 14 29  1  0
 14 30  1  0
 15 31  1  0
M  CHG  2  17   1  19  -1
M  END
>  <loss>  (13) 
0.4348842203617096

>  <score>  (13) 
3.185548782348633

$$$$
WABUYJXRDJWTKO-UHFFFAOYSA-N
     RDKit          3D

 31 31  0  0  0  0  0  0  0  0999 V2000
  118.4665  121.7717   81.1522 C   0  0  0  0  0  0  0  0  0  0  0  0
  119.3211  122.7596   81.7312 O   0  0  0  0  0  0  0  0  0  0  0  0
  118.9171  123.1865   82.9646 C   0  0  0  0  0  0  0  0  0  0  0  0
  117.8052  122.9950   83.4400 O   0  0  0  0  0  0  0  0  0  0  0  0
  120.0547  123.9566   83.6354 C   0  0  0  0  0  0  0  0  0  0  0  0
  120.2562  123.5843   85.0498 N   0  0  0  0  0  0  0  0  0  0  0  0
  121.4911  123.0718   85.4886 C   0  0  0  0  0  0  0  0  0  0  0  0
  122.6557  123.2124   84.7150 C   0  0  0  0  0  0  0  0  0  0  0  0
  123.9084  122.7743   85.1712 C   0  0  0  0  0  0  0  0  0  0  0  0
  124.0445  122.2050   86.4399 C   0  0  0  0  0  0  0  0  0  0  0  0
  125.3502  121.7228   86.9664 C   0  0  0  0  0  0  0  0  0  0  0  0
  126.3618  121.6544   86.2875 O   0  0  0  0  0  0  0  0  0  0  0  0
  125.2444  121.3834   88.2746 O   0  0  0  0  0  0  0  0  0  0  0  0
  126.4688  121.4954   89.0023 C   0  0  0  0  0  0  0  0  0  0  0  0
  122.9176  122.0924   87.2561 C   0  0  0  0  0  0  0  0  0  0  0  0
  121.6655  122.5346   86.7882 C   0  0  0  0  0  0  0  0  0  0  0  0
  120.5312  122.4102   87.7092 N   0  0  0  0  0  4  0  0  0  0  0  0
  119.8836  121.3514   87.6966 O   0  0  0  0  0  0  0  0  0  0  0  0
  120.2920  123.3716   88.4545 O   0  0  0  0  0  1  0  0  0  0  0  0
  117.9723  121.2003   81.9517 H   0  0  0  0  0  0  0  0  0  0  0  0
  117.7054  122.2647   80.5295 H   0  0  0  0  0  0  0  0  0  0  0  0
  119.0640  121.0895   80.5295 H   0  0  0  0  0  0  0  0  0  0  0  0
  120.9854  123.7546   83.0850 H   0  0  0  0  0  0  0  0  0  0  0  0
  119.7841  125.0225   83.6139 H   0  0  0  0  0  0  0  0  0  0  0  0
  119.4849  123.7010   85.7223 H   0  0  0  0  0  0  0  0  0  0  0  0
  122.5832  123.6800   83.7219 H   0  0  0  0  0  0  0  0  0  0  0  0
  124.7915  122.8800   84.5239 H   0  0  0  0  0  0  0  0  0  0  0  0
  126.2570  121.4760   90.0816 H   0  0  0  0  0  0  0  0  0  0  0  0
  127.1279  120.6537   88.7429 H   0  0  0  0  0  0  0  0  0  0  0  0
  126.9643  122.4426   88.7429 H   0  0  0  0  0  0  0  0  0  0  0  0
  123.0077  121.6590   88.2631 H   0  0  0  0  0  0  0  0  0  0  0  0
  1  2  1  0
  2  3  1  0
  3  4  2  0
  3  5  1  0
  5  6  1  0
  6  7  1  0
  7  8  2  0
  8  9  1  0
  9 10  2  0
 10 11  1  0
 11 12  2  0
 11 13  1  0
 13 14  1  0
 10 15  1  0
 15 16  2  0
 16 17  1  0
 17 18  2  0
 17 19  1  0
 16  7  1  0
  1 20  1  0
  1 21  1  0
  1 22  1  0
  5 23  1  0
  5 24  1  0
  6 25  1  0
  8 26  1  0
  9 27  1  0
 14 28  1  0
 14 29  1  0
 14 30  1  0
 15 31  1  0
M  CHG  2  17   1  19  -1
M  END
>  <loss>  (14) 
0.4074142575263977

>  <score>  (14) 
3.0153324604034424

$$$$
WABUYJXRDJWTKO-UHFFFAOYSA-N
     RDKit          3D

 31 31  0  0  0  0  0  0  0  0999 V2000
  117.6304  121.9466   82.1891 C   0  0  0  0  0  0  0  0  0  0  0  0
  118.2282  122.8806   83.0887 O   0  0  0  0  0  0  0  0  0  0  0  0
  119.5010  123.2440   82.7540 C   0  0  0  0  0  0  0  0  0  0  0  0
  120.0622  122.9429   81.7070 O   0  0  0  0  0  0  0  0  0  0  0  0
  120.1225  124.1422   83.8232 C   0  0  0  0  0  0  0  0  0  0  0  0
  120.2699  123.4503   85.1177 N   0  0  0  0  0  0  0  0  0  0  0  0
  121.5382  123.0881   85.5894 C   0  0  0  0  0  0  0  0  0  0  0  0
  122.6553  123.0855   84.7382 C   0  0  0  0  0  0  0  0  0  0  0  0
  123.9133  122.6392   85.1689 C   0  0  0  0  0  0  0  0  0  0  0  0
  124.0932  122.1484   86.4653 C   0  0  0  0  0  0  0  0  0  0  0  0
  125.4517  121.6883   86.8629 C   0  0  0  0  0  0  0  0  0  0  0  0
  126.1818  121.0399   86.1311 O   0  0  0  0  0  0  0  0  0  0  0  0
  125.7422  122.0952   88.1224 O   0  0  0  0  0  0  0  0  0  0  0  0
  127.1126  122.4499   88.3167 C   0  0  0  0  0  0  0  0  0  0  0  0
  122.9971  122.0977   87.3278 C   0  0  0  0  0  0  0  0  0  0  0  0
  121.7399  122.5517   86.8835 C   0  0  0  0  0  0  0  0  0  0  0  0
  120.6307  122.4626   87.8343 N   0  0  0  0  0  4  0  0  0  0  0  0
  119.7159  123.2952   87.7352 O   0  0  0  0  0  0  0  0  0  0  0  0
  120.6883  121.5745   88.6971 O   0  0  0  0  0  1  0  0  0  0  0  0
  117.1247  121.1565   82.7634 H   0  0  0  0  0  0  0  0  0  0  0  0
  116.8966  122.4661   81.5554 H   0  0  0  0  0  0  0  0  0  0  0  0
  118.4095  121.4978   81.5554 H   0  0  0  0  0  0  0  0  0  0  0  0
  121.1161  124.4659   83.4797 H   0  0  0  0  0  0  0  0  0  0  0  0
  119.4510  125.0003   83.9743 H   0  0  0  0  0  0  0  0  0  0  0  0
  119.4342  123.2320   85.6787 H   0  0  0  0  0  0  0  0  0  0  0  0
  122.5404  123.4438   83.7045 H   0  0  0  0  0  0  0  0  0  0  0  0
  124.7686  122.6757   84.4782 H   0  0  0  0  0  0  0  0  0  0  0  0
  127.3277  122.5056   89.3941 H   0  0  0  0  0  0  0  0  0  0  0  0
  127.7577  121.6891   87.8529 H   0  0  0  0  0  0  0  0  0  0  0  0
  127.3076  123.4281   87.8529 H   0  0  0  0  0  0  0  0  0  0  0  0
  123.1143  121.7054   88.3487 H   0  0  0  0  0  0  0  0  0  0  0  0
  1  2  1  0
  2  3  1  0
  3  4  2  0
  3  5  1  0
  5  6  1  0
  6  7  1  0
  7  8  2  0
  8  9  1  0
  9 10  2  0
 10 11  1  0
 11 12  2  0
 11 13  1  0
 13 14  1  0
 10 15  1  0
 15 16  2  0
 16 17  1  0
 17 18  2  0
 17 19  1  0
 16  7  1  0
  1 20  1  0
  1 21  1  0
  1 22  1  0
  5 23  1  0
  5 24  1  0
  6 25  1  0
  8 26  1  0
  9 27  1  0
 14 28  1  0
 14 29  1  0
 14 30  1  0
 15 31  1  0
M  CHG  2  17   1  19  -1
M  END
>  <loss>  (15) 
0.4263690412044525

>  <score>  (15) 
3.109450578689575

$$$$
WABUYJXRDJWTKO-UHFFFAOYSA-N
     RDKit          3D

 31 31  0  0  0  0  0  0  0  0999 V2000
  118.9078  122.1600   80.9103 C   0  0  0  0  0  0  0  0  0  0  0  0
  118.6849  122.1516   82.3214 O   0  0  0  0  0  0  0  0  0  0  0  0
  119.2696  123.1955   82.9783 C   0  0  0  0  0  0  0  0  0  0  0  0
  119.6082  124.2524   82.4600 O   0  0  0  0  0  0  0  0  0  0  0  0
  119.4758  122.8349   84.4478 C   0  0  0  0  0  0  0  0  0  0  0  0
  120.4361  123.7510   85.0864 N   0  0  0  0  0  0  0  0  0  0  0  0
  121.6592  123.2806   85.5765 C   0  0  0  0  0  0  0  0  0  0  0  0
  122.8092  123.2725   84.7698 C   0  0  0  0  0  0  0  0  0  0  0  0
  124.0212  122.7217   85.2118 C   0  0  0  0  0  0  0  0  0  0  0  0
  124.1197  122.1289   86.4737 C   0  0  0  0  0  0  0  0  0  0  0  0
  125.4322  121.5606   86.8854 C   0  0  0  0  0  0  0  0  0  0  0  0
  126.0855  120.8042   86.1852 O   0  0  0  0  0  0  0  0  0  0  0  0
  125.7782  122.0060   88.1175 O   0  0  0  0  0  0  0  0  0  0  0  0
  127.1546  122.3695   88.2388 C   0  0  0  0  0  0  0  0  0  0  0  0
  122.9882  122.0826   87.2890 C   0  0  0  0  0  0  0  0  0  0  0  0
  121.7785  122.6424   86.8335 C   0  0  0  0  0  0  0  0  0  0  0  0
  120.6305  122.5526   87.7348 N   0  0  0  0  0  4  0  0  0  0  0  0
  119.7159  123.3770   87.5871 O   0  0  0  0  0  0  0  0  0  0  0  0
  120.6607  121.6751   88.6100 O   0  0  0  0  0  1  0  0  0  0  0  0
  119.9887  122.2006   80.7100 H   0  0  0  0  0  0  0  0  0  0  0  0
  118.4869  121.2454   80.4671 H   0  0  0  0  0  0  0  0  0  0  0  0
  118.4195  123.0404   80.4671 H   0  0  0  0  0  0  0  0  0  0  0  0
  118.5116  122.9011   84.9732 H   0  0  0  0  0  0  0  0  0  0  0  0
  119.8763  121.8120   84.5048 H   0  0  0  0  0  0  0  0  0  0  0  0
  120.2042  124.7508   85.1733 H   0  0  0  0  0  0  0  0  0  0  0  0
  122.7578  123.7109   83.7622 H   0  0  0  0  0  0  0  0  0  0  0  0
  124.9047  122.7568   84.5574 H   0  0  0  0  0  0  0  0  0  0  0  0
  127.4228  122.4403   89.3032 H   0  0  0  0  0  0  0  0  0  0  0  0
  127.7798  121.6056   87.7532 H   0  0  0  0  0  0  0  0  0  0  0  0
  127.3211  123.3424   87.7532 H   0  0  0  0  0  0  0  0  0  0  0  0
  123.0406  121.6116   88.2818 H   0  0  0  0  0  0  0  0  0  0  0  0
  1  2  1  0
  2  3  1  0
  3  4  2  0
  3  5  1  0
  5  6  1  0
  6  7  1  0
  7  8  2  0
  8  9  1  0
  9 10  2  0
 10 11  1  0
 11 12  2  0
 11 13  1  0
 13 14  1  0
 10 15  1  0
 15 16  2  0
 16 17  1  0
 17 18  2  0
 17 19  1  0
 16  7  1  0
  1 20  1  0
  1 21  1  0
  1 22  1  0
  5 23  1  0
  5 24  1  0
  6 25  1  0
  8 26  1  0
  9 27  1  0
 14 28  1  0
 14 29  1  0
 14 30  1  0
 15 31  1  0
M  CHG  2  17   1  19  -1
M  END
>  <loss>  (16) 
0.43929940462112427

>  <score>  (16) 
3.1322081089019775

$$$$
WABUYJXRDJWTKO-UHFFFAOYSA-N
     RDKit          3D

 31 31  0  0  0  0  0  0  0  0999 V2000
  117.2179  122.1197   82.1334 C   0  0  0  0  0  0  0  0  0  0  0  0
  118.4338  122.7679   82.5110 O   0  0  0  0  0  0  0  0  0  0  0  0
  118.4968  123.0942   83.8349 C   0  0  0  0  0  0  0  0  0  0  0  0
  117.6217  122.8609   84.6597 O   0  0  0  0  0  0  0  0  0  0  0  0
  119.8029  123.8293   84.1275 C   0  0  0  0  0  0  0  0  0  0  0  0
  120.2486  123.5838   85.5096 N   0  0  0  0  0  0  0  0  0  0  0  0
  121.5553  123.1613   85.7776 C   0  0  0  0  0  0  0  0  0  0  0  0
  122.5686  123.2803   84.8121 C   0  0  0  0  0  0  0  0  0  0  0  0
  123.8613  122.7803   85.0283 C   0  0  0  0  0  0  0  0  0  0  0  0
  124.1812  122.1130   86.2140 C   0  0  0  0  0  0  0  0  0  0  0  0
  125.5694  121.6040   86.3843 C   0  0  0  0  0  0  0  0  0  0  0  0
  126.2861  121.2834   85.4500 O   0  0  0  0  0  0  0  0  0  0  0  0
  125.9025  121.5599   87.6970 O   0  0  0  0  0  0  0  0  0  0  0  0
  127.2966  121.7448   87.9494 C   0  0  0  0  0  0  0  0  0  0  0  0
  123.1904  121.9405   87.1813 C   0  0  0  0  0  0  0  0  0  0  0  0
  121.8974  122.4505   86.9520 C   0  0  0  0  0  0  0  0  0  0  0  0
  120.9056  122.2280   88.0033 N   0  0  0  0  0  4  0  0  0  0  0  0
  120.8373  123.0632   88.9173 O   0  0  0  0  0  0  0  0  0  0  0  0
  120.2169  121.1999   87.9282 O   0  0  0  0  0  1  0  0  0  0  0  0
  116.6640  121.8244   83.0367 H   0  0  0  0  0  0  0  0  0  0  0  0
  116.6043  122.8104   81.5364 H   0  0  0  0  0  0  0  0  0  0  0  0
  117.4493  121.2253   81.5364 H   0  0  0  0  0  0  0  0  0  0  0  0
  120.5781  123.4762   83.4315 H   0  0  0  0  0  0  0  0  0  0  0  0
  119.6336  124.9087   84.0004 H   0  0  0  0  0  0  0  0  0  0  0  0
  119.5900  123.7249   86.2888 H   0  0  0  0  0  0  0  0  0  0  0  0
  122.3419  123.7800   83.8588 H   0  0  0  0  0  0  0  0  0  0  0  0
  124.6324  122.9150   84.2555 H   0  0  0  0  0  0  0  0  0  0  0  0
  127.4728  121.7682   89.0350 H   0  0  0  0  0  0  0  0  0  0  0  0
  127.8633  120.9139   87.5038 H   0  0  0  0  0  0  0  0  0  0  0  0
  127.6272  122.6946   87.5038 H   0  0  0  0  0  0  0  0  0  0  0  0
  123.4176  121.4093   88.1174 H   0  0  0  0  0  0  0  0  0  0  0  0
  1  2  1  0
  2  3  1  0
  3  4  2  0
  3  5  1  0
  5  6  1  0
  6  7  1  0
  7  8  2  0
  8  9  1  0
  9 10  2  0
 10 11  1  0
 11 12  2  0
 11 13  1  0
 13 14  1  0
 10 15  1  0
 15 16  2  0
 16 17  1  0
 17 18  2  0
 17 19  1  0
 16  7  1  0
  1 20  1  0
  1 21  1  0
  1 22  1  0
  5 23  1  0
  5 24  1  0
  6 25  1  0
  8 26  1  0
  9 27  1  0
 14 28  1  0
 14 29  1  0
 14 30  1  0
 15 31  1  0
M  CHG  2  17   1  19  -1
M  END
>  <loss>  (17) 
0.4780026078224182

>  <score>  (17) 
3.297769784927368

$$$$
WABUYJXRDJWTKO-UHFFFAOYSA-N
     RDKit          3D

 31 31  0  0  0  0  0  0  0  0999 V2000
  118.5172  121.7419   81.2551 C   0  0  0  0  0  0  0  0  0  0  0  0
  119.3639  122.7259   81.8520 O   0  0  0  0  0  0  0  0  0  0  0  0
  118.9256  123.1691   83.0678 C   0  0  0  0  0  0  0  0  0  0  0  0
  117.8228  122.9287   83.5424 O   0  0  0  0  0  0  0  0  0  0  0  0
  120.0107  124.0263   83.7194 C   0  0  0  0  0  0  0  0  0  0  0  0
  120.2653  123.6717   85.1298 N   0  0  0  0  0  0  0  0  0  0  0  0
  121.5030  123.1285   85.5216 C   0  0  0  0  0  0  0  0  0  0  0  0
  122.6380  123.2321   84.6998 C   0  0  0  0  0  0  0  0  0  0  0  0
  123.8962  122.7629   85.1077 C   0  0  0  0  0  0  0  0  0  0  0  0
  124.0690  122.1987   86.3741 C   0  0  0  0  0  0  0  0  0  0  0  0
  125.3818  121.6845   86.8504 C   0  0  0  0  0  0  0  0  0  0  0  0
  125.4940  120.8592   87.7422 O   0  0  0  0  0  0  0  0  0  0  0  0
  126.3998  122.2562   86.1614 O   0  0  0  0  0  0  0  0  0  0  0  0
  127.5541  122.5318   86.9570 C   0  0  0  0  0  0  0  0  0  0  0  0
  122.9741  122.1225   87.2367 C   0  0  0  0  0  0  0  0  0  0  0  0
  121.7162  122.5956   86.8171 C   0  0  0  0  0  0  0  0  0  0  0  0
  120.6179  122.5085   87.7849 N   0  0  0  0  0  4  0  0  0  0  0  0
  119.4668  122.7403   87.3825 O   0  0  0  0  0  0  0  0  0  0  0  0
  120.9061  122.1985   88.9502 O   0  0  0  0  0  1  0  0  0  0  0  0
  118.0174  121.1610   82.0442 H   0  0  0  0  0  0  0  0  0  0  0  0
  117.7604  122.2394   80.6308 H   0  0  0  0  0  0  0  0  0  0  0  0
  119.1221  121.0678   80.6308 H   0  0  0  0  0  0  0  0  0  0  0  0
  120.9447  123.8977   83.1528 H   0  0  0  0  0  0  0  0  0  0  0  0
  119.6570  125.0678   83.7037 H   0  0  0  0  0  0  0  0  0  0  0  0
  119.5294  123.8234   85.8343 H   0  0  0  0  0  0  0  0  0  0  0  0
  122.5374  123.6947   83.7069 H   0  0  0  0  0  0  0  0  0  0  0  0
  124.7544  122.8400   84.4239 H   0  0  0  0  0  0  0  0  0  0  0  0
  127.2886  122.4684   88.0226 H   0  0  0  0  0  0  0  0  0  0  0  0
  128.3398  121.7960   86.7305 H   0  0  0  0  0  0  0  0  0  0  0  0
  127.9226  123.5432   86.7305 H   0  0  0  0  0  0  0  0  0  0  0  0
  123.0939  121.6936   88.2426 H   0  0  0  0  0  0  0  0  0  0  0  0
  1  2  1  0
  2  3  1  0
  3  4  2  0
  3  5  1  0
  5  6  1  0
  6  7  1  0
  7  8  2  0
  8  9  1  0
  9 10  2  0
 10 11  1  0
 11 12  2  0
 11 13  1  0
 13 14  1  0
 10 15  1  0
 15 16  2  0
 16 17  1  0
 17 18  2  0
 17 19  1  0
 16  7  1  0
  1 20  1  0
  1 21  1  0
  1 22  1  0
  5 23  1  0
  5 24  1  0
  6 25  1  0
  8 26  1  0
  9 27  1  0
 14 28  1  0
 14 29  1  0
 14 30  1  0
 15 31  1  0
M  CHG  2  17   1  19  -1
M  END
>  <loss>  (18) 
0.4276503324508667

>  <score>  (18) 
3.0409090518951416

$$$$
WABUYJXRDJWTKO-UHFFFAOYSA-N
     RDKit          3D

 31 31  0  0  0  0  0  0  0  0999 V2000
  118.4007  121.5304   81.4257 C   0  0  0  0  0  0  0  0  0  0  0  0
  118.1245  122.0248   82.7374 O   0  0  0  0  0  0  0  0  0  0  0  0
  118.9763  123.0102   83.1457 C   0  0  0  0  0  0  0  0  0  0  0  0
  119.4378  123.8854   82.4237 O   0  0  0  0  0  0  0  0  0  0  0  0
  119.2999  122.8357   84.6279 C   0  0  0  0  0  0  0  0  0  0  0  0
  120.3456  123.7806   85.0552 N   0  0  0  0  0  0  0  0  0  0  0  0
  121.5919  123.3207   85.4951 C   0  0  0  0  0  0  0  0  0  0  0  0
  122.7052  123.3100   84.6377 C   0  0  0  0  0  0  0  0  0  0  0  0
  123.9406  122.7706   85.0285 C   0  0  0  0  0  0  0  0  0  0  0  0
  124.0968  122.1926   86.2914 C   0  0  0  0  0  0  0  0  0  0  0  0
  125.3860  121.6108   86.7534 C   0  0  0  0  0  0  0  0  0  0  0  0
  125.4590  120.7303   87.5950 O   0  0  0  0  0  0  0  0  0  0  0  0
  126.4310  122.1930   86.1159 O   0  0  0  0  0  0  0  0  0  0  0  0
  127.4861  122.6019   86.9884 C   0  0  0  0  0  0  0  0  0  0  0  0
  123.0020  122.1496   87.1564 C   0  0  0  0  0  0  0  0  0  0  0  0
  121.7701  122.6962   86.7516 C   0  0  0  0  0  0  0  0  0  0  0  0
  120.6641  122.6092   87.7032 N   0  0  0  0  0  4  0  0  0  0  0  0
  120.8510  121.9613   88.7442 O   0  0  0  0  0  0  0  0  0  0  0  0
  119.6016  123.1682   87.3955 O   0  0  0  0  0  1  0  0  0  0  0  0
  118.9359  120.5723   81.5002 H   0  0  0  0  0  0  0  0  0  0  0  0
  117.4553  121.3810   80.8835 H   0  0  0  0  0  0  0  0  0  0  0  0
  119.0235  122.2571   80.8835 H   0  0  0  0  0  0  0  0  0  0  0  0
  118.3895  123.0157   85.2184 H   0  0  0  0  0  0  0  0  0  0  0  0
  119.6671  121.8112   84.7879 H   0  0  0  0  0  0  0  0  0  0  0  0
  120.1573  124.7929   85.0299 H   0  0  0  0  0  0  0  0  0  0  0  0
  122.6053  123.7376   83.6291 H   0  0  0  0  0  0  0  0  0  0  0  0
  124.7936  122.8030   84.3347 H   0  0  0  0  0  0  0  0  0  0  0  0
  127.1664  122.4780   88.0336 H   0  0  0  0  0  0  0  0  0  0  0  0
  128.3767  121.9838   86.8017 H   0  0  0  0  0  0  0  0  0  0  0  0
  127.7276  123.6587   86.8017 H   0  0  0  0  0  0  0  0  0  0  0  0
  123.1019  121.6902   88.1509 H   0  0  0  0  0  0  0  0  0  0  0  0
  1  2  1  0
  2  3  1  0
  3  4  2  0
  3  5  1  0
  5  6  1  0
  6  7  1  0
  7  8  2  0
  8  9  1  0
  9 10  2  0
 10 11  1  0
 11 12  2  0
 11 13  1  0
 13 14  1  0
 10 15  1  0
 15 16  2  0
 16 17  1  0
 17 18  2  0
 17 19  1  0
 16  7  1  0
  1 20  1  0
  1 21  1  0
  1 22  1  0
  5 23  1  0
  5 24  1  0
  6 25  1  0
  8 26  1  0
  9 27  1  0
 14 28  1  0
 14 29  1  0
 14 30  1  0
 15 31  1  0
M  CHG  2  17   1  19  -1
M  END
>  <loss>  (19) 
0.43683260679244995

>  <score>  (19) 
3.0720529556274414

$$$$
WABUYJXRDJWTKO-UHFFFAOYSA-N
     RDKit          3D

 31 31  0  0  0  0  0  0  0  0999 V2000
  118.3788  121.6560   81.2617 C   0  0  0  0  0  0  0  0  0  0  0  0
  119.2038  122.6638   81.8492 O   0  0  0  0  0  0  0  0  0  0  0  0
  118.8511  122.9916   83.1278 C   0  0  0  0  0  0  0  0  0  0  0  0
  117.8362  122.6047   83.6931 O   0  0  0  0  0  0  0  0  0  0  0  0
  119.9012  123.9306   83.7215 C   0  0  0  0  0  0  0  0  0  0  0  0
  120.2028  123.6466   85.1386 N   0  0  0  0  0  0  0  0  0  0  0  0
  121.4492  123.1123   85.5144 C   0  0  0  0  0  0  0  0  0  0  0  0
  122.5652  123.1967   84.6648 C   0  0  0  0  0  0  0  0  0  0  0  0
  123.8325  122.7368   85.0546 C   0  0  0  0  0  0  0  0  0  0  0  0
  124.0343  122.2017   86.3294 C   0  0  0  0  0  0  0  0  0  0  0  0
  125.3578  121.6983   86.7873 C   0  0  0  0  0  0  0  0  0  0  0  0
  125.4918  120.9088   87.7080 O   0  0  0  0  0  0  0  0  0  0  0  0
  126.3580  122.2348   86.0461 O   0  0  0  0  0  0  0  0  0  0  0  0
  127.5687  122.4465   86.7748 C   0  0  0  0  0  0  0  0  0  0  0  0
  122.9593  122.1455   87.2182 C   0  0  0  0  0  0  0  0  0  0  0  0
  121.6920  122.6091   86.8166 C   0  0  0  0  0  0  0  0  0  0  0  0
  120.6161  122.5444   87.8109 N   0  0  0  0  0  4  0  0  0  0  0  0
  120.7014  121.6901   88.7072 O   0  0  0  0  0  0  0  0  0  0  0  0
  119.6861  123.3568   87.7003 O   0  0  0  0  0  1  0  0  0  0  0  0
  117.8969  121.0674   82.0562 H   0  0  0  0  0  0  0  0  0  0  0  0
  117.6072  122.1313   80.6382 H   0  0  0  0  0  0  0  0  0  0  0  0
  118.9972  120.9935   80.6382 H   0  0  0  0  0  0  0  0  0  0  0  0
  120.8292  123.8293   83.1397 H   0  0  0  0  0  0  0  0  0  0  0  0
  119.4916  124.9503   83.6732 H   0  0  0  0  0  0  0  0  0  0  0  0
  119.4936  123.8415   85.8596 H   0  0  0  0  0  0  0  0  0  0  0  0
  122.4419  123.6366   83.6641 H   0  0  0  0  0  0  0  0  0  0  0  0
  124.6749  122.7981   84.3499 H   0  0  0  0  0  0  0  0  0  0  0  0
  127.3584  122.4097   87.8539 H   0  0  0  0  0  0  0  0  0  0  0  0
  128.2945  121.6616   86.5157 H   0  0  0  0  0  0  0  0  0  0  0  0
  127.9853  123.4310   86.5157 H   0  0  0  0  0  0  0  0  0  0  0  0
  123.1022  121.7397   88.2306 H   0  0  0  0  0  0  0  0  0  0  0  0
  1  2  1  0
  2  3  1  0
  3  4  2  0
  3  5  1  0
  5  6  1  0
  6  7  1  0
  7  8  2  0
  8  9  1  0
  9 10  2  0
 10 11  1  0
 11 12  2  0
 11 13  1  0
 13 14  1  0
 10 15  1  0
 15 16  2  0
 16 17  1  0
 17 18  2  0
 17 19  1  0
 16  7  1  0
  1 20  1  0
  1 21  1  0
  1 22  1  0
  5 23  1  0
  5 24  1  0
  6 25  1  0
  8 26  1  0
  9 27  1  0
 14 28  1  0
 14 29  1  0
 14 30  1  0
 15 31  1  0
M  CHG  2  17   1  19  -1
M  END
>  <loss>  (20) 
0.4209681451320648

>  <score>  (20) 
2.9784796237945557

$$$$
WABUYJXRDJWTKO-UHFFFAOYSA-N
     RDKit          3D

 31 31  0  0  0  0  0  0  0  0999 V2000
  117.7071  122.1087   82.0722 C   0  0  0  0  0  0  0  0  0  0  0  0
  118.2884  122.9280   83.0870 O   0  0  0  0  0  0  0  0  0  0  0  0
  119.5323  123.4003   82.7807 C   0  0  0  0  0  0  0  0  0  0  0  0
  120.0935  123.2456   81.7023 O   0  0  0  0  0  0  0  0  0  0  0  0
  120.1170  124.2161   83.9334 C   0  0  0  0  0  0  0  0  0  0  0  0
  120.2640  123.4177   85.1650 N   0  0  0  0  0  0  0  0  0  0  0  0
  121.5353  123.0640   85.6351 C   0  0  0  0  0  0  0  0  0  0  0  0
  122.6627  123.1339   84.8005 C   0  0  0  0  0  0  0  0  0  0  0  0
  123.9264  122.6981   85.2251 C   0  0  0  0  0  0  0  0  0  0  0  0
  124.1028  122.1456   86.4970 C   0  0  0  0  0  0  0  0  0  0  0  0
  125.4678  121.7003   86.8892 C   0  0  0  0  0  0  0  0  0  0  0  0
  126.2662  121.2131   86.1054 O   0  0  0  0  0  0  0  0  0  0  0  0
  125.6788  121.9199   88.2097 O   0  0  0  0  0  0  0  0  0  0  0  0
  127.0315  122.2450   88.5356 C   0  0  0  0  0  0  0  0  0  0  0  0
  122.9977  122.0225   87.3404 C   0  0  0  0  0  0  0  0  0  0  0  0
  121.7347  122.4667   86.9027 C   0  0  0  0  0  0  0  0  0  0  0  0
  120.6163  122.3002   87.8321 N   0  0  0  0  0  4  0  0  0  0  0  0
  120.5944  123.0171   88.8447 O   0  0  0  0  0  0  0  0  0  0  0  0
  119.7731  121.4329   87.5611 O   0  0  0  0  0  1  0  0  0  0  0  0
  117.1314  121.2973   82.5412 H   0  0  0  0  0  0  0  0  0  0  0  0
  117.0386  122.7187   81.4468 H   0  0  0  0  0  0  0  0  0  0  0  0
  118.5036  121.6792   81.4468 H   0  0  0  0  0  0  0  0  0  0  0  0
  121.1069  124.5916   83.6348 H   0  0  0  0  0  0  0  0  0  0  0  0
  119.4227  125.0419   84.1480 H   0  0  0  0  0  0  0  0  0  0  0  0
  119.4257  123.1181   85.6831 H   0  0  0  0  0  0  0  0  0  0  0  0
  122.5514  123.5421   83.7851 H   0  0  0  0  0  0  0  0  0  0  0  0
  124.7891  122.7921   84.5492 H   0  0  0  0  0  0  0  0  0  0  0  0
  127.1485  122.2731   89.6290 H   0  0  0  0  0  0  0  0  0  0  0  0
  127.7035  121.4828   88.1144 H   0  0  0  0  0  0  0  0  0  0  0  0
  127.2837  123.2294   88.1144 H   0  0  0  0  0  0  0  0  0  0  0  0
  123.1123  121.5810   88.3414 H   0  0  0  0  0  0  0  0  0  0  0  0
  1  2  1  0
  2  3  1  0
  3  4  2  0
  3  5  1  0
  5  6  1  0
  6  7  1  0
  7  8  2  0
  8  9  1  0
  9 10  2  0
 10 11  1  0
 11 12  2  0
 11 13  1  0
 13 14  1  0
 10 15  1  0
 15 16  2  0
 16 17  1  0
 17 18  2  0
 17 19  1  0
 16  7  1  0
  1 20  1  0
  1 21  1  0
  1 22  1  0
  5 23  1  0
  5 24  1  0
  6 25  1  0
  8 26  1  0
  9 27  1  0
 14 28  1  0
 14 29  1  0
 14 30  1  0
 15 31  1  0
M  CHG  2  17   1  19  -1
M  END
>  <loss>  (21) 
0.43885093927383423

>  <score>  (21) 
3.054792881011963

$$$$
WABUYJXRDJWTKO-UHFFFAOYSA-N
     RDKit          3D

 31 31  0  0  0  0  0  0  0  0999 V2000
  118.6028  122.1844   80.9174 C   0  0  0  0  0  0  0  0  0  0  0  0
  118.6324  122.0363   82.3381 O   0  0  0  0  0  0  0  0  0  0  0  0
  119.1225  123.1274   82.9959 C   0  0  0  0  0  0  0  0  0  0  0  0
  119.3670  124.2102   82.4783 O   0  0  0  0  0  0  0  0  0  0  0  0
  119.3585  122.7852   84.4654 C   0  0  0  0  0  0  0  0  0  0  0  0
  120.3141  123.7227   85.0793 N   0  0  0  0  0  0  0  0  0  0  0  0
  121.5637  123.2816   85.5287 C   0  0  0  0  0  0  0  0  0  0  0  0
  122.6777  123.2636   84.6722 C   0  0  0  0  0  0  0  0  0  0  0  0
  123.9173  122.7421   85.0741 C   0  0  0  0  0  0  0  0  0  0  0  0
  124.0773  122.1899   86.3479 C   0  0  0  0  0  0  0  0  0  0  0  0
  125.3710  121.6277   86.8217 C   0  0  0  0  0  0  0  0  0  0  0  0
  125.4518  120.7798   87.6954 O   0  0  0  0  0  0  0  0  0  0  0  0
  126.4101  122.1868   86.1547 O   0  0  0  0  0  0  0  0  0  0  0  0
  127.5479  122.4553   86.9763 C   0  0  0  0  0  0  0  0  0  0  0  0
  122.9823  122.1545   87.2130 C   0  0  0  0  0  0  0  0  0  0  0  0
  121.7463  122.6830   86.7970 C   0  0  0  0  0  0  0  0  0  0  0  0
  120.6403  122.6052   87.7496 N   0  0  0  0  0  4  0  0  0  0  0  0
  119.7105  123.4154   87.6184 O   0  0  0  0  0  0  0  0  0  0  0  0
  120.7163  121.7497   88.6431 O   0  0  0  0  0  1  0  0  0  0  0  0
  118.3927  123.2336   80.6624 H   0  0  0  0  0  0  0  0  0  0  0  0
  119.5771  121.8931   80.4980 H   0  0  0  0  0  0  0  0  0  0  0  0
  117.8157  121.5405   80.4980 H   0  0  0  0  0  0  0  0  0  0  0  0
  118.4020  122.8414   85.0057 H   0  0  0  0  0  0  0  0  0  0  0  0
  119.7765  121.7695   84.5257 H   0  0  0  0  0  0  0  0  0  0  0  0
  120.0593  124.7156   85.1792 H   0  0  0  0  0  0  0  0  0  0  0  0
  122.5750  123.6709   83.6556 H   0  0  0  0  0  0  0  0  0  0  0  0
  124.7704  122.7682   84.3802 H   0  0  0  0  0  0  0  0  0  0  0  0
  127.2595  122.3873   88.0356 H   0  0  0  0  0  0  0  0  0  0  0  0
  128.3364  121.7186   86.7629 H   0  0  0  0  0  0  0  0  0  0  0  0
  127.9238  123.4669   86.7629 H   0  0  0  0  0  0  0  0  0  0  0  0
  123.0853  121.7151   88.2162 H   0  0  0  0  0  0  0  0  0  0  0  0
  1  2  1  0
  2  3  1  0
  3  4  2  0
  3  5  1  0
  5  6  1  0
  6  7  1  0
  7  8  2  0
  8  9  1  0
  9 10  2  0
 10 11  1  0
 11 12  2  0
 11 13  1  0
 13 14  1  0
 10 15  1  0
 15 16  2  0
 16 17  1  0
 17 18  2  0
 17 19  1  0
 16  7  1  0
  1 20  1  0
  1 21  1  0
  1 22  1  0
  5 23  1  0
  5 24  1  0
  6 25  1  0
  8 26  1  0
  9 27  1  0
 14 28  1  0
 14 29  1  0
 14 30  1  0
 15 31  1  0
M  CHG  2  17   1  19  -1
M  END
>  <loss>  (22) 
0.4290592074394226

>  <score>  (22) 
3.001577377319336

$$$$
WABUYJXRDJWTKO-UHFFFAOYSA-N
     RDKit          3D

 31 31  0  0  0  0  0  0  0  0999 V2000
  118.6389  122.3071   80.8999 C   0  0  0  0  0  0  0  0  0  0  0  0
  118.7813  122.1135   82.3083 O   0  0  0  0  0  0  0  0  0  0  0  0
  119.2037  123.2258   82.9799 C   0  0  0  0  0  0  0  0  0  0  0  0
  119.3791  124.3249   82.4695 O   0  0  0  0  0  0  0  0  0  0  0  0
  119.3923  122.8875   84.4587 C   0  0  0  0  0  0  0  0  0  0  0  0
  120.3406  123.7865   85.1461 N   0  0  0  0  0  0  0  0  0  0  0  0
  121.5937  123.3138   85.5780 C   0  0  0  0  0  0  0  0  0  0  0  0
  122.7185  123.3554   84.7367 C   0  0  0  0  0  0  0  0  0  0  0  0
  123.9565  122.8199   85.1242 C   0  0  0  0  0  0  0  0  0  0  0  0
  124.1037  122.1916   86.3634 C   0  0  0  0  0  0  0  0  0  0  0  0
  125.3960  121.6118   86.8199 C   0  0  0  0  0  0  0  0  0  0  0  0
  125.4777  120.7610   87.6907 O   0  0  0  0  0  0  0  0  0  0  0  0
  126.4340  122.1587   86.1407 O   0  0  0  0  0  0  0  0  0  0  0  0
  127.5193  122.5687   86.9746 C   0  0  0  0  0  0  0  0  0  0  0  0
  122.9957  122.0889   87.2064 C   0  0  0  0  0  0  0  0  0  0  0  0
  121.7586  122.6302   86.8082 C   0  0  0  0  0  0  0  0  0  0  0  0
  120.6323  122.4619   87.7320 N   0  0  0  0  0  4  0  0  0  0  0  0
  119.5437  122.1171   87.2493 O   0  0  0  0  0  0  0  0  0  0  0  0
  120.8339  122.6645   88.9398 O   0  0  0  0  0  1  0  0  0  0  0  0
  117.9965  123.1803   80.7129 H   0  0  0  0  0  0  0  0  0  0  0  0
  119.6287  122.4773   80.4512 H   0  0  0  0  0  0  0  0  0  0  0  0
  118.1818  121.4129   80.4512 H   0  0  0  0  0  0  0  0  0  0  0  0
  118.4162  122.9595   84.9608 H   0  0  0  0  0  0  0  0  0  0  0  0
  119.8104  121.8714   84.5102 H   0  0  0  0  0  0  0  0  0  0  0  0
  120.0822  124.7698   85.3112 H   0  0  0  0  0  0  0  0  0  0  0  0
  122.6258  123.8216   83.7447 H   0  0  0  0  0  0  0  0  0  0  0  0
  124.8191  122.8956   84.4458 H   0  0  0  0  0  0  0  0  0  0  0  0
  127.2317  122.4600   88.0307 H   0  0  0  0  0  0  0  0  0  0  0  0
  128.3984  121.9406   86.7675 H   0  0  0  0  0  0  0  0  0  0  0  0
  127.7636  123.6210   86.7675 H   0  0  0  0  0  0  0  0  0  0  0  0
  123.0892  121.5860   88.1803 H   0  0  0  0  0  0  0  0  0  0  0  0
  1  2  1  0
  2  3  1  0
  3  4  2  0
  3  5  1  0
  5  6  1  0
  6  7  1  0
  7  8  2  0
  8  9  1  0
  9 10  2  0
 10 11  1  0
 11 12  2  0
 11 13  1  0
 13 14  1  0
 10 15  1  0
 15 16  2  0
 16 17  1  0
 17 18  2  0
 17 19  1  0
 16  7  1  0
  1 20  1  0
  1 21  1  0
  1 22  1  0
  5 23  1  0
  5 24  1  0
  6 25  1  0
  8 26  1  0
  9 27  1  0
 14 28  1  0
 14 29  1  0
 14 30  1  0
 15 31  1  0
M  CHG  2  17   1  19  -1
M  END
>  <loss>  (23) 
0.44118499755859375

>  <score>  (23) 
3.0581443309783936

$$$$
WABUYJXRDJWTKO-UHFFFAOYSA-N
     RDKit          3D

 31 31  0  0  0  0  0  0  0  0999 V2000
  118.4756  122.2297   80.9088 C   0  0  0  0  0  0  0  0  0  0  0  0
  118.6477  122.0493   82.3156 O   0  0  0  0  0  0  0  0  0  0  0  0
  119.1388  123.1502   82.9588 C   0  0  0  0  0  0  0  0  0  0  0  0
  119.3506  124.2326   82.4272 O   0  0  0  0  0  0  0  0  0  0  0  0
  119.3518  122.8243   84.4371 C   0  0  0  0  0  0  0  0  0  0  0  0
  120.2885  123.7470   85.1085 N   0  0  0  0  0  0  0  0  0  0  0  0
  121.5497  123.2994   85.5434 C   0  0  0  0  0  0  0  0  0  0  0  0
  122.6563  123.2826   84.6775 C   0  0  0  0  0  0  0  0  0  0  0  0
  123.9013  122.7693   85.0725 C   0  0  0  0  0  0  0  0  0  0  0  0
  124.0738  122.2223   86.3465 C   0  0  0  0  0  0  0  0  0  0  0  0
  125.3746  121.6692   86.8121 C   0  0  0  0  0  0  0  0  0  0  0  0
  125.4710  120.8565   87.7172 O   0  0  0  0  0  0  0  0  0  0  0  0
  126.4016  122.1922   86.0983 O   0  0  0  0  0  0  0  0  0  0  0  0
  127.5716  122.4549   86.8752 C   0  0  0  0  0  0  0  0  0  0  0  0
  122.9840  122.1782   87.2178 C   0  0  0  0  0  0  0  0  0  0  0  0
  121.7396  122.6965   86.8116 C   0  0  0  0  0  0  0  0  0  0  0  0
  120.6331  122.5921   87.7682 N   0  0  0  0  0  4  0  0  0  0  0  0
  120.7205  121.7260   88.6509 O   0  0  0  0  0  0  0  0  0  0  0  0
  119.6808  123.3786   87.6458 O   0  0  0  0  0  1  0  0  0  0  0  0
  117.7266  123.0150   80.7288 H   0  0  0  0  0  0  0  0  0  0  0  0
  119.4338  122.5265   80.4573 H   0  0  0  0  0  0  0  0  0  0  0  0
  118.1340  121.2867   80.4573 H   0  0  0  0  0  0  0  0  0  0  0  0
  118.3803  122.8782   84.9502 H   0  0  0  0  0  0  0  0  0  0  0  0
  119.7920  121.8176   84.4891 H   0  0  0  0  0  0  0  0  0  0  0  0
  120.0160  124.7287   85.2601 H   0  0  0  0  0  0  0  0  0  0  0  0
  122.5433  123.6838   83.6595 H   0  0  0  0  0  0  0  0  0  0  0  0
  124.7494  122.7980   84.3725 H   0  0  0  0  0  0  0  0  0  0  0  0
  127.3216  122.3988   87.9450 H   0  0  0  0  0  0  0  0  0  0  0  0
  128.3437  121.7078   86.6394 H   0  0  0  0  0  0  0  0  0  0  0  0
  127.9501  123.4605   86.6394 H   0  0  0  0  0  0  0  0  0  0  0  0
  123.0974  121.7392   88.2200 H   0  0  0  0  0  0  0  0  0  0  0  0
  1  2  1  0
  2  3  1  0
  3  4  2  0
  3  5  1  0
  5  6  1  0
  6  7  1  0
  7  8  2  0
  8  9  1  0
  9 10  2  0
 10 11  1  0
 11 12  2  0
 11 13  1  0
 13 14  1  0
 10 15  1  0
 15 16  2  0
 16 17  1  0
 17 18  2  0
 17 19  1  0
 16  7  1  0
  1 20  1  0
  1 21  1  0
  1 22  1  0
  5 23  1  0
  5 24  1  0
  6 25  1  0
  8 26  1  0
  9 27  1  0
 14 28  1  0
 14 29  1  0
 14 30  1  0
 15 31  1  0
M  CHG  2  17   1  19  -1
M  END
>  <loss>  (24) 
0.4290724992752075

>  <score>  (24) 
2.993414878845215

$$$$
WABUYJXRDJWTKO-UHFFFAOYSA-N
     RDKit          3D

 31 31  0  0  0  0  0  0  0  0999 V2000
  119.3030  124.5507   80.9241 C   0  0  0  0  0  0  0  0  0  0  0  0
  119.2595  123.3187   81.6462 O   0  0  0  0  0  0  0  0  0  0  0  0
  118.7678  123.4381   82.9154 C   0  0  0  0  0  0  0  0  0  0  0  0
  117.7600  124.0642   83.2175 O   0  0  0  0  0  0  0  0  0  0  0  0
  119.6526  122.6499   83.8812 C   0  0  0  0  0  0  0  0  0  0  0  0
  120.2975  123.4968   84.9043 N   0  0  0  0  0  0  0  0  0  0  0  0
  121.5408  123.1359   85.4558 C   0  0  0  0  0  0  0  0  0  0  0  0
  122.7134  123.1480   84.6816 C   0  0  0  0  0  0  0  0  0  0  0  0
  123.9473  122.7193   85.1947 C   0  0  0  0  0  0  0  0  0  0  0  0
  124.0440  122.2303   86.4999 C   0  0  0  0  0  0  0  0  0  0  0  0
  125.3296  121.7675   87.0895 C   0  0  0  0  0  0  0  0  0  0  0  0
  126.3175  121.5082   86.4218 O   0  0  0  0  0  0  0  0  0  0  0  0
  125.2351  121.6808   88.4391 O   0  0  0  0  0  0  0  0  0  0  0  0
  126.2874  120.9284   89.0457 C   0  0  0  0  0  0  0  0  0  0  0  0
  122.8908  122.1585   87.2834 C   0  0  0  0  0  0  0  0  0  0  0  0
  121.6582  122.5919   86.7589 C   0  0  0  0  0  0  0  0  0  0  0  0
  120.4846  122.4622   87.6285 N   0  0  0  0  0  4  0  0  0  0  0  0
  119.7397  121.4889   87.4419 O   0  0  0  0  0  0  0  0  0  0  0  0
  120.3092  123.3251   88.5033 O   0  0  0  0  0  1  0  0  0  0  0  0
  119.3327  125.3908   81.6337 H   0  0  0  0  0  0  0  0  0  0  0  0
  120.2025  124.5733   80.2914 H   0  0  0  0  0  0  0  0  0  0  0  0
  118.4074  124.6367   80.2914 H   0  0  0  0  0  0  0  0  0  0  0  0
  119.0311  121.8988   84.3906 H   0  0  0  0  0  0  0  0  0  0  0  0
  120.4549  122.1889   83.2864 H   0  0  0  0  0  0  0  0  0  0  0  0
  119.8325  124.3608   85.2177 H   0  0  0  0  0  0  0  0  0  0  0  0
  122.6627  123.5043   83.6421 H   0  0  0  0  0  0  0  0  0  0  0  0
  124.8467  122.7687   84.5634 H   0  0  0  0  0  0  0  0  0  0  0  0
  126.1992  120.9914   90.1404 H   0  0  0  0  0  0  0  0  0  0  0  0
  126.2141  119.8767   88.7319 H   0  0  0  0  0  0  0  0  0  0  0  0
  127.2589  121.3378   88.7319 H   0  0  0  0  0  0  0  0  0  0  0  0
  122.9451  121.7639   88.3088 H   0  0  0  0  0  0  0  0  0  0  0  0
  1  2  1  0
  2  3  1  0
  3  4  2  0
  3  5  1  0
  5  6  1  0
  6  7  1  0
  7  8  2  0
  8  9  1  0
  9 10  2  0
 10 11  1  0
 11 12  2  0
 11 13  1  0
 13 14  1  0
 10 15  1  0
 15 16  2  0
 16 17  1  0
 17 18  2  0
 17 19  1  0
 16  7  1  0
  1 20  1  0
  1 21  1  0
  1 22  1  0
  5 23  1  0
  5 24  1  0
  6 25  1  0
  8 26  1  0
  9 27  1  0
 14 28  1  0
 14 29  1  0
 14 30  1  0
 15 31  1  0
M  CHG  2  17   1  19  -1
M  END
>  <loss>  (25) 
0.4315217435359955

>  <score>  (25) 
3.001680850982666

$$$$
