WEOIHIYCKWSSBW-UHFFFAOYSA-N
     RDKit          3D

 26 26  0  0  0  0  0  0  0  0999 V2000
  119.0176  123.2846   85.5305 N   0  0  0  0  0  0  0  0  0  0  0  0
  119.9546  123.9556   86.1107 C   0  0  0  0  0  0  0  0  0  0  0  0
  120.2779  125.1999   85.6983 N   0  0  0  0  0  0  0  0  0  0  0  0
  120.6847  123.4265   87.1218 N   0  0  0  0  0  0  0  0  0  0  0  0
  121.2668  122.2755   87.0442 C   0  0  0  0  0  0  0  0  0  0  0  0
  121.2228  121.4218   85.9763 N   0  0  0  0  0  0  0  0  0  0  0  0
  122.0164  121.6900   88.0324 N   0  0  0  0  0  0  0  0  0  0  0  0
  123.4135  121.7121   88.2079 C   0  0  0  0  0  0  0  0  0  0  0  0
  123.9255  121.9256   89.5007 C   0  0  0  0  0  0  0  0  0  0  0  0
  125.3015  121.9349   89.7528 C   0  0  0  0  0  0  0  0  0  0  0  0
  126.2000  121.7165   88.7127 C   0  0  0  0  0  0  0  0  0  0  0  0
  125.7062  121.4795   87.4254 C   0  0  0  0  0  0  0  0  0  0  0  0
  126.6443  121.2381   86.3228 N   0  0  0  0  0  4  0  0  0  0  0  0
  126.7199  120.0892   85.8635 O   0  0  0  0  0  0  0  0  0  0  0  0
  127.3078  122.2014   85.9113 O   0  0  0  0  0  1  0  0  0  0  0  0
  124.3256  121.4652   87.1756 C   0  0  0  0  0  0  0  0  0  0  0  0
  118.7843  122.3365   85.8584 H   0  0  0  0  0  0  0  0  0  0  0  0
  121.0287  125.7210   86.1733 H   0  0  0  0  0  0  0  0  0  0  0  0
  119.7738  125.6280   84.9087 H   0  0  0  0  0  0  0  0  0  0  0  0
  121.7239  120.5228   86.0146 H   0  0  0  0  0  0  0  0  0  0  0  0
  120.6884  121.6781   85.1338 H   0  0  0  0  0  0  0  0  0  0  0  0
  121.4863  121.1635   88.7414 H   0  0  0  0  0  0  0  0  0  0  0  0
  123.2265  122.0894   90.3341 H   0  0  0  0  0  0  0  0  0  0  0  0
  125.6730  122.1148   90.7724 H   0  0  0  0  0  0  0  0  0  0  0  0
  127.2838  121.7301   88.9003 H   0  0  0  0  0  0  0  0  0  0  0  0
  123.9572  121.2582   86.1600 H   0  0  0  0  0  0  0  0  0  0  0  0
  1  2  2  3
  2  3  1  0
  2  4  1  0
  4  5  2  3
  5  6  1  0
  5  7  1  0
  7  8  1  0
  8  9  2  0
  9 10  1  0
 10 11  2  0
 11 12  1  0
 12 13  1  0
 13 14  2  0
 13 15  1  0
 12 16  2  0
 16  8  1  0
  1 17  1  0
  3 18  1  0
  3 19  1  0
  6 20  1  0
  6 21  1  0
  7 22  1  0
  9 23  1  0
 10 24  1  0
 11 25  1  0
 16 26  1  0
M  CHG  2  13   1  15  -1
M  END
>  <loss>  (1) 
0.40920203924179077

>  <score>  (1) 
7.424917221069336

$$$$
WEOIHIYCKWSSBW-UHFFFAOYSA-N
     RDKit          3D

 26 26  0  0  0  0  0  0  0  0999 V2000
  120.2715  125.0127   85.4040 N   0  0  0  0  0  0  0  0  0  0  0  0
  119.9694  123.9031   85.9890 C   0  0  0  0  0  0  0  0  0  0  0  0
  118.8798  123.1958   85.6209 N   0  0  0  0  0  0  0  0  0  0  0  0
  120.6995  123.4255   87.0255 N   0  0  0  0  0  0  0  0  0  0  0  0
  121.2519  122.2574   87.0201 C   0  0  0  0  0  0  0  0  0  0  0  0
  121.1729  121.3346   86.0134 N   0  0  0  0  0  0  0  0  0  0  0  0
  121.9998  121.7216   88.0373 N   0  0  0  0  0  0  0  0  0  0  0  0
  123.3974  121.7427   88.2082 C   0  0  0  0  0  0  0  0  0  0  0  0
  123.9139  121.9733   89.4964 C   0  0  0  0  0  0  0  0  0  0  0  0
  125.2907  121.9827   89.7441 C   0  0  0  0  0  0  0  0  0  0  0  0
  126.1855  121.7475   88.7045 C   0  0  0  0  0  0  0  0  0  0  0  0
  125.6872  121.4935   87.4222 C   0  0  0  0  0  0  0  0  0  0  0  0
  126.6214  121.2343   86.3203 N   0  0  0  0  0  4  0  0  0  0  0  0
  126.8939  120.0549   86.0532 O   0  0  0  0  0  0  0  0  0  0  0  0
  127.0837  122.2135   85.7163 O   0  0  0  0  0  1  0  0  0  0  0  0
  124.3058  121.4790   87.1768 C   0  0  0  0  0  0  0  0  0  0  0  0
  121.1066  125.5392   85.6980 H   0  0  0  0  0  0  0  0  0  0  0  0
  118.6539  122.3119   86.0990 H   0  0  0  0  0  0  0  0  0  0  0  0
  118.2746  123.5401   84.8619 H   0  0  0  0  0  0  0  0  0  0  0  0
  121.6523  120.4278   86.1073 H   0  0  0  0  0  0  0  0  0  0  0  0
  120.6341  121.5466   85.1616 H   0  0  0  0  0  0  0  0  0  0  0  0
  121.4677  121.2389   88.7754 H   0  0  0  0  0  0  0  0  0  0  0  0
  123.2178  122.1505   90.3295 H   0  0  0  0  0  0  0  0  0  0  0  0
  125.6658  122.1761   90.7599 H   0  0  0  0  0  0  0  0  0  0  0  0
  127.2699  121.7610   88.8886 H   0  0  0  0  0  0  0  0  0  0  0  0
  123.9337  121.2586   86.1654 H   0  0  0  0  0  0  0  0  0  0  0  0
  1  2  2  3
  2  3  1  0
  2  4  1  0
  4  5  2  3
  5  6  1  0
  5  7  1  0
  7  8  1  0
  8  9  2  0
  9 10  1  0
 10 11  2  0
 11 12  1  0
 12 13  1  0
 13 14  2  0
 13 15  1  0
 12 16  2  0
 16  8  1  0
  1 17  1  0
  3 18  1  0
  3 19  1  0
  6 20  1  0
  6 21  1  0
  7 22  1  0
  9 23  1  0
 10 24  1  0
 11 25  1  0
 16 26  1  0
M  CHG  2  13   1  15  -1
M  END
>  <loss>  (2) 
0.4151539206504822

>  <score>  (2) 
7.335277557373047

$$$$
WEOIHIYCKWSSBW-UHFFFAOYSA-N
     RDKit          3D

 26 26  0  0  0  0  0  0  0  0999 V2000
  119.5755  124.5565   86.8169 N   0  0  0  0  0  0  0  0  0  0  0  0
  119.9479  123.7402   85.8899 C   0  0  0  0  0  0  0  0  0  0  0  0
  119.4009  123.7931   84.6564 N   0  0  0  0  0  0  0  0  0  0  0  0
  120.8956  122.7965   86.1086 N   0  0  0  0  0  0  0  0  0  0  0  0
  121.1328  122.2910   87.2742 C   0  0  0  0  0  0  0  0  0  0  0  0
  120.4651  122.5873   88.4307 N   0  0  0  0  0  0  0  0  0  0  0  0
  122.0758  121.3368   87.5562 N   0  0  0  0  0  0  0  0  0  0  0  0
  123.4132  121.5093   87.9574 C   0  0  0  0  0  0  0  0  0  0  0  0
  123.7936  121.7639   89.2821 C   0  0  0  0  0  0  0  0  0  0  0  0
  125.1383  121.9052   89.6453 C   0  0  0  0  0  0  0  0  0  0  0  0
  126.1383  121.7832   88.6852 C   0  0  0  0  0  0  0  0  0  0  0  0
  125.7779  121.5112   87.3622 C   0  0  0  0  0  0  0  0  0  0  0  0
  126.8214  121.3697   86.3402 N   0  0  0  0  0  4  0  0  0  0  0  0
  127.1045  120.2243   85.9599 O   0  0  0  0  0  0  0  0  0  0  0  0
  127.3596  122.4027   85.9169 O   0  0  0  0  0  1  0  0  0  0  0  0
  124.4290  121.3685   86.9990 C   0  0  0  0  0  0  0  0  0  0  0  0
  120.0028  124.5029   87.7525 H   0  0  0  0  0  0  0  0  0  0  0  0
  119.7094  123.1340   83.9275 H   0  0  0  0  0  0  0  0  0  0  0  0
  118.6752  124.4926   84.4445 H   0  0  0  0  0  0  0  0  0  0  0  0
  120.7329  122.1269   89.3123 H   0  0  0  0  0  0  0  0  0  0  0  0
  119.6947  123.2709   88.4200 H   0  0  0  0  0  0  0  0  0  0  0  0
  121.7624  120.3602   87.4614 H   0  0  0  0  0  0  0  0  0  0  0  0
  123.0166  121.8550   90.0554 H   0  0  0  0  0  0  0  0  0  0  0  0
  125.4050  122.1132   90.6920 H   0  0  0  0  0  0  0  0  0  0  0  0
  127.1962  121.8990   88.9632 H   0  0  0  0  0  0  0  0  0  0  0  0
  124.1662  121.1446   85.9546 H   0  0  0  0  0  0  0  0  0  0  0  0
  1  2  2  3
  2  3  1  0
  2  4  1  0
  4  5  2  3
  5  6  1  0
  5  7  1  0
  7  8  1  0
  8  9  2  0
  9 10  1  0
 10 11  2  0
 11 12  1  0
 12 13  1  0
 13 14  2  0
 13 15  1  0
 12 16  2  0
 16  8  1  0
  1 17  1  0
  3 18  1  0
  3 19  1  0
  6 20  1  0
  6 21  1  0
  7 22  1  0
  9 23  1  0
 10 24  1  0
 11 25  1  0
 16 26  1  0
M  CHG  2  13   1  15  -1
M  END
>  <loss>  (3) 
0.39190903306007385

>  <score>  (3) 
7.205489158630371

$$$$
WEOIHIYCKWSSBW-UHFFFAOYSA-N
     RDKit          3D

 26 26  0  0  0  0  0  0  0  0999 V2000
  118.9521  123.9312   86.5842 N   0  0  0  0  0  0  0  0  0  0  0  0
  119.8819  123.6523   85.7344 C   0  0  0  0  0  0  0  0  0  0  0  0
  119.9698  124.3117   84.5593 N   0  0  0  0  0  0  0  0  0  0  0  0
  120.8052  122.6905   85.9769 N   0  0  0  0  0  0  0  0  0  0  0  0
  121.1424  122.3200   87.1684 C   0  0  0  0  0  0  0  0  0  0  0  0
  120.6150  122.7943   88.3380 N   0  0  0  0  0  0  0  0  0  0  0  0
  122.0673  121.3557   87.4752 N   0  0  0  0  0  0  0  0  0  0  0  0
  123.3942  121.5140   87.9155 C   0  0  0  0  0  0  0  0  0  0  0  0
  123.7400  121.7399   89.2549 C   0  0  0  0  0  0  0  0  0  0  0  0
  125.0750  121.8677   89.6566 C   0  0  0  0  0  0  0  0  0  0  0  0
  126.0998  121.7606   88.7213 C   0  0  0  0  0  0  0  0  0  0  0  0
  125.7740  121.5172   87.3839 C   0  0  0  0  0  0  0  0  0  0  0  0
  126.8439  121.3918   86.3875 N   0  0  0  0  0  4  0  0  0  0  0  0
  126.9172  120.3309   85.7506 O   0  0  0  0  0  0  0  0  0  0  0  0
  127.6125  122.3529   86.2407 O   0  0  0  0  0  1  0  0  0  0  0  0
  124.4348  121.3881   86.9819 C   0  0  0  0  0  0  0  0  0  0  0  0
  118.8991  123.4188   87.4762 H   0  0  0  0  0  0  0  0  0  0  0  0
  120.7182  124.0768   83.8917 H   0  0  0  0  0  0  0  0  0  0  0  0
  119.2884  125.0494   84.3305 H   0  0  0  0  0  0  0  0  0  0  0  0
  120.9544  122.4317   89.2404 H   0  0  0  0  0  0  0  0  0  0  0  0
  119.8786  123.5140   88.3164 H   0  0  0  0  0  0  0  0  0  0  0  0
  121.7471  120.3826   87.3690 H   0  0  0  0  0  0  0  0  0  0  0  0
  122.9429  121.8188   90.0088 H   0  0  0  0  0  0  0  0  0  0  0  0
  125.3144  122.0532   90.7141 H   0  0  0  0  0  0  0  0  0  0  0  0
  127.1504  121.8660   89.0298 H   0  0  0  0  0  0  0  0  0  0  0  0
  124.1992  121.1867   85.9265 H   0  0  0  0  0  0  0  0  0  0  0  0
  1  2  2  3
  2  3  1  0
  2  4  1  0
  4  5  2  3
  5  6  1  0
  5  7  1  0
  7  8  1  0
  8  9  2  0
  9 10  1  0
 10 11  2  0
 11 12  1  0
 12 13  1  0
 13 14  2  0
 13 15  1  0
 12 16  2  0
 16  8  1  0
  1 17  1  0
  3 18  1  0
  3 19  1  0
  6 20  1  0
  6 21  1  0
  7 22  1  0
  9 23  1  0
 10 24  1  0
 11 25  1  0
 16 26  1  0
M  CHG  2  13   1  15  -1
M  END
>  <loss>  (4) 
0.3741024136543274

>  <score>  (4) 
6.870614528656006

$$$$
WEOIHIYCKWSSBW-UHFFFAOYSA-N
     RDKit          3D

 26 26  0  0  0  0  0  0  0  0999 V2000
  119.3972  124.6133   86.5642 N   0  0  0  0  0  0  0  0  0  0  0  0
  119.8613  123.8883   85.6032 C   0  0  0  0  0  0  0  0  0  0  0  0
  119.4312  124.0581   84.3345 N   0  0  0  0  0  0  0  0  0  0  0  0
  120.7926  122.9279   85.8195 N   0  0  0  0  0  0  0  0  0  0  0  0
  120.9916  122.3852   86.9755 C   0  0  0  0  0  0  0  0  0  0  0  0
  120.2950  122.6544   88.1215 N   0  0  0  0  0  0  0  0  0  0  0  0
  121.9163  121.4123   87.2546 N   0  0  0  0  0  0  0  0  0  0  0  0
  123.2152  121.5531   87.7764 C   0  0  0  0  0  0  0  0  0  0  0  0
  123.4811  121.7578   89.1373 C   0  0  0  0  0  0  0  0  0  0  0  0
  124.7902  121.8686   89.6208 C   0  0  0  0  0  0  0  0  0  0  0  0
  125.8690  121.7656   88.7477 C   0  0  0  0  0  0  0  0  0  0  0  0
  125.6228  121.5433   87.3897 C   0  0  0  0  0  0  0  0  0  0  0  0
  126.7501  121.4224   86.4580 N   0  0  0  0  0  4  0  0  0  0  0  0
  126.8429  120.3773   85.7978 O   0  0  0  0  0  0  0  0  0  0  0  0
  127.5442  122.3711   86.3854 O   0  0  0  0  0  1  0  0  0  0  0  0
  124.3094  121.4312   86.9057 C   0  0  0  0  0  0  0  0  0  0  0  0
  119.7359  124.4710   87.5264 H   0  0  0  0  0  0  0  0  0  0  0  0
  119.8120  123.4710   83.5787 H   0  0  0  0  0  0  0  0  0  0  0  0
  118.7224  124.7748   84.1225 H   0  0  0  0  0  0  0  0  0  0  0  0
  120.5330  122.1649   88.9959 H   0  0  0  0  0  0  0  0  0  0  0  0
  119.5324  123.3467   88.1100 H   0  0  0  0  0  0  0  0  0  0  0  0
  121.6195  120.4464   87.0551 H   0  0  0  0  0  0  0  0  0  0  0  0
  122.6404  121.8331   89.8428 H   0  0  0  0  0  0  0  0  0  0  0  0
  124.9666  122.0375   90.6933 H   0  0  0  0  0  0  0  0  0  0  0  0
  126.8998  121.8577   89.1205 H   0  0  0  0  0  0  0  0  0  0  0  0
  124.1366  121.2462   85.8353 H   0  0  0  0  0  0  0  0  0  0  0  0
  1  2  2  3
  2  3  1  0
  2  4  1  0
  4  5  2  3
  5  6  1  0
  5  7  1  0
  7  8  1  0
  8  9  2  0
  9 10  1  0
 10 11  2  0
 11 12  1  0
 12 13  1  0
 13 14  2  0
 13 15  1  0
 12 16  2  0
 16  8  1  0
  1 17  1  0
  3 18  1  0
  3 19  1  0
  6 20  1  0
  6 21  1  0
  7 22  1  0
  9 23  1  0
 10 24  1  0
 11 25  1  0
 16 26  1  0
M  CHG  2  13   1  15  -1
M  END
>  <loss>  (5) 
0.3752881586551666

>  <score>  (5) 
6.830822467803955

$$$$
WEOIHIYCKWSSBW-UHFFFAOYSA-N
     RDKit          3D

 26 26  0  0  0  0  0  0  0  0999 V2000
  118.9210  123.6926   86.5037 N   0  0  0  0  0  0  0  0  0  0  0  0
  119.9452  123.6872   85.7311 C   0  0  0  0  0  0  0  0  0  0  0  0
  120.1365  124.6778   84.8342 N   0  0  0  0  0  0  0  0  0  0  0  0
  120.8250  122.6790   85.9003 N   0  0  0  0  0  0  0  0  0  0  0  0
  121.1692  122.3290   87.0966 C   0  0  0  0  0  0  0  0  0  0  0  0
  120.7256  122.9011   88.2589 N   0  0  0  0  0  0  0  0  0  0  0  0
  122.0616  121.3384   87.4170 N   0  0  0  0  0  0  0  0  0  0  0  0
  123.3818  121.4556   87.8975 C   0  0  0  0  0  0  0  0  0  0  0  0
  123.7024  121.7450   89.2305 C   0  0  0  0  0  0  0  0  0  0  0  0
  125.0300  121.8939   89.6513 C   0  0  0  0  0  0  0  0  0  0  0  0
  126.0722  121.7742   88.7372 C   0  0  0  0  0  0  0  0  0  0  0  0
  125.7707  121.5125   87.3983 C   0  0  0  0  0  0  0  0  0  0  0  0
  126.8566  121.3992   86.4177 N   0  0  0  0  0  4  0  0  0  0  0  0
  126.8295  120.4364   85.6373 O   0  0  0  0  0  0  0  0  0  0  0  0
  127.7353  122.2728   86.4246 O   0  0  0  0  0  1  0  0  0  0  0  0
  124.4391  121.3623   86.9775 C   0  0  0  0  0  0  0  0  0  0  0  0
  118.7853  122.9315   87.1843 H   0  0  0  0  0  0  0  0  0  0  0  0
  120.9625  124.6631   84.2190 H   0  0  0  0  0  0  0  0  0  0  0  0
  119.4564  125.4483   84.7650 H   0  0  0  0  0  0  0  0  0  0  0  0
  121.0608  122.5488   89.1669 H   0  0  0  0  0  0  0  0  0  0  0  0
  120.0567  123.6836   88.2252 H   0  0  0  0  0  0  0  0  0  0  0  0
  121.7201  120.3752   87.2888 H   0  0  0  0  0  0  0  0  0  0  0  0
  122.8912  121.8581   89.9648 H   0  0  0  0  0  0  0  0  0  0  0  0
  125.2495  122.1061   90.7080 H   0  0  0  0  0  0  0  0  0  0  0  0
  127.1170  121.8838   89.0635 H   0  0  0  0  0  0  0  0  0  0  0  0
  124.2220  121.1696   85.9165 H   0  0  0  0  0  0  0  0  0  0  0  0
  1  2  2  3
  2  3  1  0
  2  4  1  0
  4  5  2  3
  5  6  1  0
  5  7  1  0
  7  8  1  0
  8  9  2  0
  9 10  1  0
 10 11  2  0
 11 12  1  0
 12 13  1  0
 13 14  2  0
 13 15  1  0
 12 16  2  0
 16  8  1  0
  1 17  1  0
  3 18  1  0
  3 19  1  0
  6 20  1  0
  6 21  1  0
  7 22  1  0
  9 23  1  0
 10 24  1  0
 11 25  1  0
 16 26  1  0
M  CHG  2  13   1  15  -1
M  END
>  <loss>  (6) 
0.3826662302017212

>  <score>  (6) 
6.7773919105529785

$$$$
WEOIHIYCKWSSBW-UHFFFAOYSA-N
     RDKit          3D

 26 26  0  0  0  0  0  0  0  0999 V2000
  119.9431  124.3530   84.7526 N   0  0  0  0  0  0  0  0  0  0  0  0
  119.9070  123.6742   85.8406 C   0  0  0  0  0  0  0  0  0  0  0  0
  118.9540  123.9087   86.7675 N   0  0  0  0  0  0  0  0  0  0  0  0
  120.8301  122.7001   85.9765 N   0  0  0  0  0  0  0  0  0  0  0  0
  121.1302  122.2682   87.1577 C   0  0  0  0  0  0  0  0  0  0  0  0
  120.5965  122.7176   88.3360 N   0  0  0  0  0  0  0  0  0  0  0  0
  122.0571  121.2997   87.4461 N   0  0  0  0  0  0  0  0  0  0  0  0
  123.3811  121.4484   87.9070 C   0  0  0  0  0  0  0  0  0  0  0  0
  123.7129  121.7937   89.2239 C   0  0  0  0  0  0  0  0  0  0  0  0
  125.0434  121.9717   89.6237 C   0  0  0  0  0  0  0  0  0  0  0  0
  126.0770  121.8257   88.7036 C   0  0  0  0  0  0  0  0  0  0  0  0
  125.7638  121.5081   87.3795 C   0  0  0  0  0  0  0  0  0  0  0  0
  126.8403  121.3662   86.3923 N   0  0  0  0  0  4  0  0  0  0  0  0
  127.1583  120.2186   86.0482 O   0  0  0  0  0  0  0  0  0  0  0  0
  127.3666  122.4006   85.9582 O   0  0  0  0  0  1  0  0  0  0  0  0
  124.4294  121.3287   86.9797 C   0  0  0  0  0  0  0  0  0  0  0  0
  120.6749  124.1654   84.0525 H   0  0  0  0  0  0  0  0  0  0  0  0
  118.9348  123.3574   87.6374 H   0  0  0  0  0  0  0  0  0  0  0  0
  118.2460  124.6389   86.6048 H   0  0  0  0  0  0  0  0  0  0  0  0
  120.9026  122.3072   89.2297 H   0  0  0  0  0  0  0  0  0  0  0  0
  119.8889  123.4661   88.3285 H   0  0  0  0  0  0  0  0  0  0  0  0
  121.7423  120.3289   87.3067 H   0  0  0  0  0  0  0  0  0  0  0  0
  122.9085  121.9282   89.9620 H   0  0  0  0  0  0  0  0  0  0  0  0
  125.2720  122.2280   90.6687 H   0  0  0  0  0  0  0  0  0  0  0  0
  127.1240  121.9582   89.0138 H   0  0  0  0  0  0  0  0  0  0  0  0
  124.2029  121.0919   85.9297 H   0  0  0  0  0  0  0  0  0  0  0  0
  1  2  2  3
  2  3  1  0
  2  4  1  0
  4  5  2  3
  5  6  1  0
  5  7  1  0
  7  8  1  0
  8  9  2  0
  9 10  1  0
 10 11  2  0
 11 12  1  0
 12 13  1  0
 13 14  2  0
 13 15  1  0
 12 16  2  0
 16  8  1  0
  1 17  1  0
  3 18  1  0
  3 19  1  0
  6 20  1  0
  6 21  1  0
  7 22  1  0
  9 23  1  0
 10 24  1  0
 11 25  1  0
 16 26  1  0
M  CHG  2  13   1  15  -1
M  END
>  <loss>  (7) 
0.3909284174442291

>  <score>  (7) 
6.77781343460083

$$$$
WEOIHIYCKWSSBW-UHFFFAOYSA-N
     RDKit          3D

 26 26  0  0  0  0  0  0  0  0999 V2000
  119.0685  123.3912   85.0738 N   0  0  0  0  0  0  0  0  0  0  0  0
  119.8872  124.0594   85.8141 C   0  0  0  0  0  0  0  0  0  0  0  0
  120.1479  125.3605   85.5653 N   0  0  0  0  0  0  0  0  0  0  0  0
  120.5555  123.4763   86.8382 N   0  0  0  0  0  0  0  0  0  0  0  0
  121.1119  122.3138   86.7463 C   0  0  0  0  0  0  0  0  0  0  0  0
  121.0973  121.4993   85.6475 N   0  0  0  0  0  0  0  0  0  0  0  0
  121.7993  121.6748   87.7465 N   0  0  0  0  0  0  0  0  0  0  0  0
  123.1771  121.7179   88.0347 C   0  0  0  0  0  0  0  0  0  0  0  0
  123.5792  121.9336   89.3655 C   0  0  0  0  0  0  0  0  0  0  0  0
  124.9299  121.9633   89.7283 C   0  0  0  0  0  0  0  0  0  0  0  0
  125.9131  121.7636   88.7637 C   0  0  0  0  0  0  0  0  0  0  0  0
  125.5290  121.5246   87.4399 C   0  0  0  0  0  0  0  0  0  0  0  0
  126.5571  121.3030   86.4162 N   0  0  0  0  0  4  0  0  0  0  0  0
  126.5863  120.2009   85.8493 O   0  0  0  0  0  0  0  0  0  0  0  0
  127.3384  122.2350   86.1748 O   0  0  0  0  0  1  0  0  0  0  0  0
  124.1736  121.4899   87.0790 C   0  0  0  0  0  0  0  0  0  0  0  0
  118.8814  122.3992   85.2783 H   0  0  0  0  0  0  0  0  0  0  0  0
  120.8043  125.8784   86.1668 H   0  0  0  0  0  0  0  0  0  0  0  0
  119.6903  125.8353   84.7740 H   0  0  0  0  0  0  0  0  0  0  0  0
  121.5738  120.5866   85.6766 H   0  0  0  0  0  0  0  0  0  0  0  0
  120.6099  121.7987   84.7909 H   0  0  0  0  0  0  0  0  0  0  0  0
  121.2316  121.0840   88.3706 H   0  0  0  0  0  0  0  0  0  0  0  0
  122.8124  122.0827   90.1400 H   0  0  0  0  0  0  0  0  0  0  0  0
  125.2148  122.1443   90.7752 H   0  0  0  0  0  0  0  0  0  0  0  0
  126.9778  121.7933   89.0386 H   0  0  0  0  0  0  0  0  0  0  0  0
  123.8920  121.2817   86.0362 H   0  0  0  0  0  0  0  0  0  0  0  0
  1  2  2  3
  2  3  1  0
  2  4  1  0
  4  5  2  3
  5  6  1  0
  5  7  1  0
  7  8  1  0
  8  9  2  0
  9 10  1  0
 10 11  2  0
 11 12  1  0
 12 13  1  0
 13 14  2  0
 13 15  1  0
 12 16  2  0
 16  8  1  0
  1 17  1  0
  3 18  1  0
  3 19  1  0
  6 20  1  0
  6 21  1  0
  7 22  1  0
  9 23  1  0
 10 24  1  0
 11 25  1  0
 16 26  1  0
M  CHG  2  13   1  15  -1
M  END
>  <loss>  (8) 
0.4289015233516693

>  <score>  (8) 
6.9589033126831055

$$$$
WEOIHIYCKWSSBW-UHFFFAOYSA-N
     RDKit          3D

 26 26  0  0  0  0  0  0  0  0999 V2000
  120.3664  125.0673   85.3673 N   0  0  0  0  0  0  0  0  0  0  0  0
  119.9138  123.8799   85.5440 C   0  0  0  0  0  0  0  0  0  0  0  0
  118.5855  123.6399   85.5293 N   0  0  0  0  0  0  0  0  0  0  0  0
  120.8287  122.9001   85.6933 N   0  0  0  0  0  0  0  0  0  0  0  0
  121.0067  122.3680   86.8583 C   0  0  0  0  0  0  0  0  0  0  0  0
  120.3457  122.7121   88.0071 N   0  0  0  0  0  0  0  0  0  0  0  0
  121.9091  121.3804   87.1596 N   0  0  0  0  0  0  0  0  0  0  0  0
  123.1880  121.4953   87.7415 C   0  0  0  0  0  0  0  0  0  0  0  0
  123.4047  121.8120   89.0892 C   0  0  0  0  0  0  0  0  0  0  0  0
  124.6962  121.9570   89.6114 C   0  0  0  0  0  0  0  0  0  0  0  0
  125.8065  121.8057   88.7866 C   0  0  0  0  0  0  0  0  0  0  0  0
  125.6096  121.5164   87.4339 C   0  0  0  0  0  0  0  0  0  0  0  0
  126.7689  121.3696   86.5461 N   0  0  0  0  0  4  0  0  0  0  0  0
  126.8971  120.2962   85.9393 O   0  0  0  0  0  0  0  0  0  0  0  0
  127.5502  122.3268   86.4523 O   0  0  0  0  0  1  0  0  0  0  0  0
  124.3142  121.3701   86.9113 C   0  0  0  0  0  0  0  0  0  0  0  0
  121.3820  125.2386   85.3805 H   0  0  0  0  0  0  0  0  0  0  0  0
  118.2335  122.6825   85.6723 H   0  0  0  0  0  0  0  0  0  0  0  0
  117.9239  124.4141   85.3750 H   0  0  0  0  0  0  0  0  0  0  0  0
  120.5601  122.2265   88.8897 H   0  0  0  0  0  0  0  0  0  0  0  0
  119.6342  123.4566   87.9885 H   0  0  0  0  0  0  0  0  0  0  0  0
  121.6112  120.4219   86.9287 H   0  0  0  0  0  0  0  0  0  0  0  0
  122.5389  121.9501   89.7535 H   0  0  0  0  0  0  0  0  0  0  0  0
  124.8332  122.1913   90.6774 H   0  0  0  0  0  0  0  0  0  0  0  0
  126.8231  121.9123   89.1930 H   0  0  0  0  0  0  0  0  0  0  0  0
  124.1801  121.1553   85.8408 H   0  0  0  0  0  0  0  0  0  0  0  0
  1  2  2  3
  2  3  1  0
  2  4  1  0
  4  5  2  3
  5  6  1  0
  5  7  1  0
  7  8  1  0
  8  9  2  0
  9 10  1  0
 10 11  2  0
 11 12  1  0
 12 13  1  0
 13 14  2  0
 13 15  1  0
 12 16  2  0
 16  8  1  0
  1 17  1  0
  3 18  1  0
  3 19  1  0
  6 20  1  0
  6 21  1  0
  7 22  1  0
  9 23  1  0
 10 24  1  0
 11 25  1  0
 16 26  1  0
M  CHG  2  13   1  15  -1
M  END
>  <loss>  (9) 
0.388423889875412

>  <score>  (9) 
6.751410961151123

$$$$
WEOIHIYCKWSSBW-UHFFFAOYSA-N
     RDKit          3D

 26 26  0  0  0  0  0  0  0  0999 V2000
  119.0250  124.2119   86.1508 N   0  0  0  0  0  0  0  0  0  0  0  0
  119.9483  123.8791   85.3134 C   0  0  0  0  0  0  0  0  0  0  0  0
  120.0275  124.4628   84.0983 N   0  0  0  0  0  0  0  0  0  0  0  0
  120.8730  122.9338   85.6093 N   0  0  0  0  0  0  0  0  0  0  0  0
  120.9741  122.3857   86.7754 C   0  0  0  0  0  0  0  0  0  0  0  0
  120.1695  122.6336   87.8535 N   0  0  0  0  0  0  0  0  0  0  0  0
  121.8868  121.4274   87.1332 N   0  0  0  0  0  0  0  0  0  0  0  0
  123.1740  121.5936   87.6761 C   0  0  0  0  0  0  0  0  0  0  0  0
  123.4111  121.8413   89.0352 C   0  0  0  0  0  0  0  0  0  0  0  0
  124.7096  121.9765   89.5409 C   0  0  0  0  0  0  0  0  0  0  0  0
  125.8062  121.8551   88.6928 C   0  0  0  0  0  0  0  0  0  0  0  0
  125.5889  121.5899   87.3377 C   0  0  0  0  0  0  0  0  0  0  0  0
  126.7354  121.4492   86.4326 N   0  0  0  0  0  4  0  0  0  0  0  0
  126.8740  120.3687   85.8412 O   0  0  0  0  0  0  0  0  0  0  0  0
  127.4989  122.4180   86.3122 O   0  0  0  0  0  1  0  0  0  0  0  0
  124.2862  121.4535   86.8314 C   0  0  0  0  0  0  0  0  0  0  0  0
  118.9785  123.7569   87.0737 H   0  0  0  0  0  0  0  0  0  0  0  0
  120.7708  124.1857   83.4413 H   0  0  0  0  0  0  0  0  0  0  0  0
  119.3447  125.1852   83.8285 H   0  0  0  0  0  0  0  0  0  0  0  0
  120.3345  122.1415   88.7432 H   0  0  0  0  0  0  0  0  0  0  0  0
  119.3986  123.3122   87.7756 H   0  0  0  0  0  0  0  0  0  0  0  0
  121.5894  120.4525   86.9842 H   0  0  0  0  0  0  0  0  0  0  0  0
  122.5560  121.9317   89.7212 H   0  0  0  0  0  0  0  0  0  0  0  0
  124.8633  122.1791   90.6111 H   0  0  0  0  0  0  0  0  0  0  0  0
  126.8287  121.9661   89.0830 H   0  0  0  0  0  0  0  0  0  0  0  0
  124.1362  121.2349   85.7638 H   0  0  0  0  0  0  0  0  0  0  0  0
  1  2  2  3
  2  3  1  0
  2  4  1  0
  4  5  2  3
  5  6  1  0
  5  7  1  0
  7  8  1  0
  8  9  2  0
  9 10  1  0
 10 11  2  0
 11 12  1  0
 12 13  1  0
 13 14  2  0
 13 15  1  0
 12 16  2  0
 16  8  1  0
  1 17  1  0
  3 18  1  0
  3 19  1  0
  6 20  1  0
  6 21  1  0
  7 22  1  0
  9 23  1  0
 10 24  1  0
 11 25  1  0
 16 26  1  0
M  CHG  2  13   1  15  -1
M  END
>  <loss>  (10) 
0.37685826420783997

>  <score>  (10) 
6.538359642028809

$$$$
WEOIHIYCKWSSBW-UHFFFAOYSA-N
     RDKit          3D

 26 26  0  0  0  0  0  0  0  0999 V2000
  118.9057  124.0653   85.9829 N   0  0  0  0  0  0  0  0  0  0  0  0
  119.9698  123.8643   85.2814 C   0  0  0  0  0  0  0  0  0  0  0  0
  120.2092  124.5763   84.1595 N   0  0  0  0  0  0  0  0  0  0  0  0
  120.8651  122.9020   85.6098 N   0  0  0  0  0  0  0  0  0  0  0  0
  120.9550  122.3974   86.7959 C   0  0  0  0  0  0  0  0  0  0  0  0
  120.2048  122.7561   87.8820 N   0  0  0  0  0  0  0  0  0  0  0  0
  121.8393  121.4243   87.1862 N   0  0  0  0  0  0  0  0  0  0  0  0
  123.1595  121.5704   87.6540 C   0  0  0  0  0  0  0  0  0  0  0  0
  123.3658  121.7823   89.0295 C   0  0  0  0  0  0  0  0  0  0  0  0
  124.6507  121.9109   89.5675 C   0  0  0  0  0  0  0  0  0  0  0  0
  125.7641  121.8168   88.7378 C   0  0  0  0  0  0  0  0  0  0  0  0
  125.5766  121.5831   87.3713 C   0  0  0  0  0  0  0  0  0  0  0  0
  126.7440  121.4722   86.4886 N   0  0  0  0  0  4  0  0  0  0  0  0
  126.8350  120.4685   85.7668 O   0  0  0  0  0  0  0  0  0  0  0  0
  127.5734  122.3935   86.5140 O   0  0  0  0  0  1  0  0  0  0  0  0
  124.2873  121.4490   86.8345 C   0  0  0  0  0  0  0  0  0  0  0  0
  118.7393  123.5127   86.8361 H   0  0  0  0  0  0  0  0  0  0  0  0
  121.0640  124.4024   83.6118 H   0  0  0  0  0  0  0  0  0  0  0  0
  119.5370  125.2932   83.8513 H   0  0  0  0  0  0  0  0  0  0  0  0
  120.3549  122.2902   88.7882 H   0  0  0  0  0  0  0  0  0  0  0  0
  119.4896  123.4921   87.7935 H   0  0  0  0  0  0  0  0  0  0  0  0
  121.4910  120.4566   87.1295 H   0  0  0  0  0  0  0  0  0  0  0  0
  122.4952  121.8484   89.6985 H   0  0  0  0  0  0  0  0  0  0  0  0
  124.7810  122.0863   90.6456 H   0  0  0  0  0  0  0  0  0  0  0  0
  126.7778  121.9247   89.1510 H   0  0  0  0  0  0  0  0  0  0  0  0
  124.1619  121.2467   85.7605 H   0  0  0  0  0  0  0  0  0  0  0  0
  1  2  2  3
  2  3  1  0
  2  4  1  0
  4  5  2  3
  5  6  1  0
  5  7  1  0
  7  8  1  0
  8  9  2  0
  9 10  1  0
 10 11  2  0
 11 12  1  0
 12 13  1  0
 13 14  2  0
 13 15  1  0
 12 16  2  0
 16  8  1  0
  1 17  1  0
  3 18  1  0
  3 19  1  0
  6 20  1  0
  6 21  1  0
  7 22  1  0
  9 23  1  0
 10 24  1  0
 11 25  1  0
 16 26  1  0
M  CHG  2  13   1  15  -1
M  END
>  <loss>  (11) 
0.378694087266922

>  <score>  (11) 
6.54163932800293

$$$$
WEOIHIYCKWSSBW-UHFFFAOYSA-N
     RDKit          3D

 26 26  0  0  0  0  0  0  0  0999 V2000
  119.9735  125.0088   85.6478 N   0  0  0  0  0  0  0  0  0  0  0  0
  119.7129  123.7496   85.6701 C   0  0  0  0  0  0  0  0  0  0  0  0
  119.2881  123.1238   84.5547 N   0  0  0  0  0  0  0  0  0  0  0  0
  119.7570  123.0876   86.8483 N   0  0  0  0  0  0  0  0  0  0  0  0
  120.8402  122.4905   87.2241 C   0  0  0  0  0  0  0  0  0  0  0  0
  120.8271  121.9307   88.4695 N   0  0  0  0  0  0  0  0  0  0  0  0
  122.0778  122.3311   86.6544 N   0  0  0  0  0  0  0  0  0  0  0  0
  123.2440  121.9839   87.3813 C   0  0  0  0  0  0  0  0  0  0  0  0
  123.2910  122.0336   88.7817 C   0  0  0  0  0  0  0  0  0  0  0  0
  124.4781  121.7723   89.4717 C   0  0  0  0  0  0  0  0  0  0  0  0
  125.6458  121.4865   88.7671 C   0  0  0  0  0  0  0  0  0  0  0  0
  125.6152  121.4770   87.3675 C   0  0  0  0  0  0  0  0  0  0  0  0
  126.8444  121.2005   86.6169 N   0  0  0  0  0  4  0  0  0  0  0  0
  126.8948  121.5708   85.4349 O   0  0  0  0  0  0  0  0  0  0  0  0
  127.7674  120.6260   87.2123 O   0  0  0  0  0  1  0  0  0  0  0  0
  124.4266  121.7421   86.6735 C   0  0  0  0  0  0  0  0  0  0  0  0
  120.2979  125.4828   86.5027 H   0  0  0  0  0  0  0  0  0  0  0  0
  119.0806  122.1151   84.5774 H   0  0  0  0  0  0  0  0  0  0  0  0
  119.1710  123.6541   83.6795 H   0  0  0  0  0  0  0  0  0  0  0  0
  121.6618  121.4416   88.8230 H   0  0  0  0  0  0  0  0  0  0  0  0
  119.9826  121.9975   89.0553 H   0  0  0  0  0  0  0  0  0  0  0  0
  122.1648  122.4722   85.6378 H   0  0  0  0  0  0  0  0  0  0  0  0
  122.3799  122.2820   89.3458 H   0  0  0  0  0  0  0  0  0  0  0  0
  124.4905  121.7923   90.5714 H   0  0  0  0  0  0  0  0  0  0  0  0
  126.5811  121.2708   89.3045 H   0  0  0  0  0  0  0  0  0  0  0  0
  124.4235  121.7601   85.5737 H   0  0  0  0  0  0  0  0  0  0  0  0
  1  2  2  3
  2  3  1  0
  2  4  1  0
  4  5  2  3
  5  6  1  0
  5  7  1  0
  7  8  1  0
  8  9  2  0
  9 10  1  0
 10 11  2  0
 11 12  1  0
 12 13  1  0
 13 14  2  0
 13 15  1  0
 12 16  2  0
 16  8  1  0
  1 17  1  0
  3 18  1  0
  3 19  1  0
  6 20  1  0
  6 21  1  0
  7 22  1  0
  9 23  1  0
 10 24  1  0
 11 25  1  0
 16 26  1  0
M  CHG  2  13   1  15  -1
M  END
>  <loss>  (12) 
0.41955429315567017

>  <score>  (12) 
6.694339752197266

$$$$
WEOIHIYCKWSSBW-UHFFFAOYSA-N
     RDKit          3D

 26 26  0  0  0  0  0  0  0  0999 V2000
  120.0892  125.2558   85.7631 N   0  0  0  0  0  0  0  0  0  0  0  0
  119.8344  124.0062   85.9023 C   0  0  0  0  0  0  0  0  0  0  0  0
  118.9956  123.3725   85.0568 N   0  0  0  0  0  0  0  0  0  0  0  0
  120.4091  123.3794   86.9490 N   0  0  0  0  0  0  0  0  0  0  0  0
  121.1288  122.3265   86.7341 C   0  0  0  0  0  0  0  0  0  0  0  0
  121.3976  121.7670   85.5144 N   0  0  0  0  0  0  0  0  0  0  0  0
  121.7807  121.6019   87.6990 N   0  0  0  0  0  0  0  0  0  0  0  0
  123.1528  121.6252   88.0200 C   0  0  0  0  0  0  0  0  0  0  0  0
  123.5328  121.9080   89.3445 C   0  0  0  0  0  0  0  0  0  0  0  0
  124.8781  121.9671   89.7232 C   0  0  0  0  0  0  0  0  0  0  0  0
  125.8766  121.7597   88.7761 C   0  0  0  0  0  0  0  0  0  0  0  0
  125.5138  121.5021   87.4498 C   0  0  0  0  0  0  0  0  0  0  0  0
  126.5598  121.3097   86.4398 N   0  0  0  0  0  4  0  0  0  0  0  0
  126.5959  120.2188   85.8517 O   0  0  0  0  0  0  0  0  0  0  0  0
  127.3531  122.2407   86.2416 O   0  0  0  0  0  1  0  0  0  0  0  0
  124.1646  121.4398   87.0705 C   0  0  0  0  0  0  0  0  0  0  0  0
  120.7318  125.7262   86.4164 H   0  0  0  0  0  0  0  0  0  0  0  0
  118.8004  122.3688   85.1809 H   0  0  0  0  0  0  0  0  0  0  0  0
  118.5503  123.8924   84.2872 H   0  0  0  0  0  0  0  0  0  0  0  0
  121.9856  120.9236   85.4531 H   0  0  0  0  0  0  0  0  0  0  0  0
  121.0119  122.1894   84.6579 H   0  0  0  0  0  0  0  0  0  0  0  0
  121.1964  120.9628   88.2568 H   0  0  0  0  0  0  0  0  0  0  0  0
  122.7537  122.0870   90.1002 H   0  0  0  0  0  0  0  0  0  0  0  0
  125.1466  122.1774   90.7690 H   0  0  0  0  0  0  0  0  0  0  0  0
  126.9369  121.7978   89.0666 H   0  0  0  0  0  0  0  0  0  0  0  0
  123.9002  121.2442   86.0208 H   0  0  0  0  0  0  0  0  0  0  0  0
  1  2  2  3
  2  3  1  0
  2  4  1  0
  4  5  2  3
  5  6  1  0
  5  7  1  0
  7  8  1  0
  8  9  2  0
  9 10  1  0
 10 11  2  0
 11 12  1  0
 12 13  1  0
 13 14  2  0
 13 15  1  0
 12 16  2  0
 16  8  1  0
  1 17  1  0
  3 18  1  0
  3 19  1  0
  6 20  1  0
  6 21  1  0
  7 22  1  0
  9 23  1  0
 10 24  1  0
 11 25  1  0
 16 26  1  0
M  CHG  2  13   1  15  -1
M  END
>  <loss>  (13) 
0.43849924206733704

>  <score>  (13) 
6.719193458557129

$$$$
WEOIHIYCKWSSBW-UHFFFAOYSA-N
     RDKit          3D

 26 26  0  0  0  0  0  0  0  0999 V2000
  120.3005  124.7159   84.4488 N   0  0  0  0  0  0  0  0  0  0  0  0
  119.9672  123.8475   85.3322 C   0  0  0  0  0  0  0  0  0  0  0  0
  118.8018  123.9551   86.0034 N   0  0  0  0  0  0  0  0  0  0  0  0
  120.8507  122.8592   85.5798 N   0  0  0  0  0  0  0  0  0  0  0  0
  120.9771  122.4162   86.7884 C   0  0  0  0  0  0  0  0  0  0  0  0
  120.2740  122.8423   87.8824 N   0  0  0  0  0  0  0  0  0  0  0  0
  121.8227  121.4095   87.1790 N   0  0  0  0  0  0  0  0  0  0  0  0
  123.1463  121.5243   87.6491 C   0  0  0  0  0  0  0  0  0  0  0  0
  123.3582  121.8222   89.0073 C   0  0  0  0  0  0  0  0  0  0  0  0
  124.6466  121.9704   89.5318 C   0  0  0  0  0  0  0  0  0  0  0  0
  125.7549  121.8392   88.7003 C   0  0  0  0  0  0  0  0  0  0  0  0
  125.5585  121.5676   87.3420 C   0  0  0  0  0  0  0  0  0  0  0  0
  126.7198  121.4551   86.4533 N   0  0  0  0  0  4  0  0  0  0  0  0
  126.8320  120.4173   85.7843 O   0  0  0  0  0  0  0  0  0  0  0  0
  127.5267  122.3952   86.4313 O   0  0  0  0  0  1  0  0  0  0  0  0
  124.2667  121.4160   86.8166 C   0  0  0  0  0  0  0  0  0  0  0  0
  121.1935  124.6207   83.9443 H   0  0  0  0  0  0  0  0  0  0  0  0
  118.5474  123.2501   86.7099 H   0  0  0  0  0  0  0  0  0  0  0  0
  118.1664  124.7421   85.8091 H   0  0  0  0  0  0  0  0  0  0  0  0
  120.4525  122.4212   88.8053 H   0  0  0  0  0  0  0  0  0  0  0  0
  119.5664  123.5841   87.7829 H   0  0  0  0  0  0  0  0  0  0  0  0
  121.4442  120.4533   87.1218 H   0  0  0  0  0  0  0  0  0  0  0  0
  122.4905  121.9415   89.6727 H   0  0  0  0  0  0  0  0  0  0  0  0
  124.7836  122.1904   90.6008 H   0  0  0  0  0  0  0  0  0  0  0  0
  126.7717  121.9476   89.1057 H   0  0  0  0  0  0  0  0  0  0  0  0
  124.1332  121.2108   85.7442 H   0  0  0  0  0  0  0  0  0  0  0  0
  1  2  2  3
  2  3  1  0
  2  4  1  0
  4  5  2  3
  5  6  1  0
  5  7  1  0
  7  8  1  0
  8  9  2  0
  9 10  1  0
 10 11  2  0
 11 12  1  0
 12 13  1  0
 13 14  2  0
 13 15  1  0
 12 16  2  0
 16  8  1  0
  1 17  1  0
  3 18  1  0
  3 19  1  0
  6 20  1  0
  6 21  1  0
  7 22  1  0
  9 23  1  0
 10 24  1  0
 11 25  1  0
 16 26  1  0
M  CHG  2  13   1  15  -1
M  END
>  <loss>  (14) 
0.3915816843509674

>  <score>  (14) 
6.462040424346924

$$$$
WEOIHIYCKWSSBW-UHFFFAOYSA-N
     RDKit          3D

 26 26  0  0  0  0  0  0  0  0999 V2000
  120.3391  125.0309   84.6811 N   0  0  0  0  0  0  0  0  0  0  0  0
  119.9799  123.9287   85.2474 C   0  0  0  0  0  0  0  0  0  0  0  0
  118.6856  123.6938   85.5523 N   0  0  0  0  0  0  0  0  0  0  0  0
  120.8770  122.9634   85.5632 N   0  0  0  0  0  0  0  0  0  0  0  0
  120.9718  122.4468   86.7441 C   0  0  0  0  0  0  0  0  0  0  0  0
  120.1856  122.7517   87.8213 N   0  0  0  0  0  0  0  0  0  0  0  0
  121.8570  121.4707   87.1223 N   0  0  0  0  0  0  0  0  0  0  0  0
  123.1432  121.6118   87.6746 C   0  0  0  0  0  0  0  0  0  0  0  0
  123.3755  121.8470   89.0367 C   0  0  0  0  0  0  0  0  0  0  0  0
  124.6727  121.9571   89.5517 C   0  0  0  0  0  0  0  0  0  0  0  0
  125.7727  121.8224   88.7101 C   0  0  0  0  0  0  0  0  0  0  0  0
  125.5599  121.5694   87.3518 C   0  0  0  0  0  0  0  0  0  0  0  0
  126.7098  121.4149   86.4534 N   0  0  0  0  0  4  0  0  0  0  0  0
  126.7810  120.3758   85.7813 O   0  0  0  0  0  0  0  0  0  0  0  0
  127.5434  122.3314   86.4188 O   0  0  0  0  0  1  0  0  0  0  0  0
  124.2585  121.4581   86.8363 C   0  0  0  0  0  0  0  0  0  0  0  0
  121.3306  125.1945   84.4552 H   0  0  0  0  0  0  0  0  0  0  0  0
  118.4155  122.8085   86.0043 H   0  0  0  0  0  0  0  0  0  0  0  0
  117.9684  124.3998   85.3329 H   0  0  0  0  0  0  0  0  0  0  0  0
  120.3434  122.2810   88.7237 H   0  0  0  0  0  0  0  0  0  0  0  0
  119.4359  123.4520   87.7299 H   0  0  0  0  0  0  0  0  0  0  0  0
  121.5366  120.5017   86.9830 H   0  0  0  0  0  0  0  0  0  0  0  0
  122.5175  121.9476   89.7177 H   0  0  0  0  0  0  0  0  0  0  0  0
  124.8227  122.1505   90.6241 H   0  0  0  0  0  0  0  0  0  0  0  0
  126.7943  121.9137   89.1076 H   0  0  0  0  0  0  0  0  0  0  0  0
  124.1118  121.2487   85.7664 H   0  0  0  0  0  0  0  0  0  0  0  0
  1  2  2  3
  2  3  1  0
  2  4  1  0
  4  5  2  3
  5  6  1  0
  5  7  1  0
  7  8  1  0
  8  9  2  0
  9 10  1  0
 10 11  2  0
 11 12  1  0
 12 13  1  0
 13 14  2  0
 13 15  1  0
 12 16  2  0
 16  8  1  0
  1 17  1  0
  3 18  1  0
  3 19  1  0
  6 20  1  0
  6 21  1  0
  7 22  1  0
  9 23  1  0
 10 24  1  0
 11 25  1  0
 16 26  1  0
M  CHG  2  13   1  15  -1
M  END
>  <loss>  (15) 
0.3798217475414276

>  <score>  (15) 
6.367280006408691

$$$$
WEOIHIYCKWSSBW-UHFFFAOYSA-N
     RDKit          3D

 26 26  0  0  0  0  0  0  0  0999 V2000
  118.9152  123.8538   85.8981 N   0  0  0  0  0  0  0  0  0  0  0  0
  120.0298  123.9222   85.2665 C   0  0  0  0  0  0  0  0  0  0  0  0
  120.2934  124.9605   84.4450 N   0  0  0  0  0  0  0  0  0  0  0  0
  120.9220  122.9395   85.5064 N   0  0  0  0  0  0  0  0  0  0  0  0
  120.9956  122.4218   86.6890 C   0  0  0  0  0  0  0  0  0  0  0  0
  120.2404  122.7845   87.7722 N   0  0  0  0  0  0  0  0  0  0  0  0
  121.8622  121.4334   87.0794 N   0  0  0  0  0  0  0  0  0  0  0  0
  123.1370  121.5538   87.6692 C   0  0  0  0  0  0  0  0  0  0  0  0
  123.3440  121.8738   89.0176 C   0  0  0  0  0  0  0  0  0  0  0  0
  124.6317  122.0243   89.5478 C   0  0  0  0  0  0  0  0  0  0  0  0
  125.7477  121.8754   88.7303 C   0  0  0  0  0  0  0  0  0  0  0  0
  125.5604  121.5828   87.3769 C   0  0  0  0  0  0  0  0  0  0  0  0
  126.7258  121.4383   86.4968 N   0  0  0  0  0  4  0  0  0  0  0  0
  126.7865  120.4264   85.7833 O   0  0  0  0  0  0  0  0  0  0  0  0
  127.5794  122.3364   86.5156 O   0  0  0  0  0  1  0  0  0  0  0  0
  124.2689  121.4310   86.8464 C   0  0  0  0  0  0  0  0  0  0  0  0
  118.7250  123.0569   86.5223 H   0  0  0  0  0  0  0  0  0  0  0  0
  121.1917  125.0049   83.9430 H   0  0  0  0  0  0  0  0  0  0  0  0
  119.5962  125.7083   84.3202 H   0  0  0  0  0  0  0  0  0  0  0  0
  120.3747  122.3093   88.6761 H   0  0  0  0  0  0  0  0  0  0  0  0
  119.5379  123.5325   87.6830 H   0  0  0  0  0  0  0  0  0  0  0  0
  121.5366  120.4694   86.9196 H   0  0  0  0  0  0  0  0  0  0  0  0
  122.4735  122.0102   89.6762 H   0  0  0  0  0  0  0  0  0  0  0  0
  124.7611  122.2611   90.6142 H   0  0  0  0  0  0  0  0  0  0  0  0
  126.7614  121.9863   89.1429 H   0  0  0  0  0  0  0  0  0  0  0  0
  124.1424  121.2136   85.7756 H   0  0  0  0  0  0  0  0  0  0  0  0
  1  2  2  3
  2  3  1  0
  2  4  1  0
  4  5  2  3
  5  6  1  0
  5  7  1  0
  7  8  1  0
  8  9  2  0
  9 10  1  0
 10 11  2  0
 11 12  1  0
 12 13  1  0
 13 14  2  0
 13 15  1  0
 12 16  2  0
 16  8  1  0
  1 17  1  0
  3 18  1  0
  3 19  1  0
  6 20  1  0
  6 21  1  0
  7 22  1  0
  9 23  1  0
 10 24  1  0
 11 25  1  0
 16 26  1  0
M  CHG  2  13   1  15  -1
M  END
>  <loss>  (16) 
0.38348913192749023

>  <score>  (16) 
6.3391523361206055

$$$$
WEOIHIYCKWSSBW-UHFFFAOYSA-N
     RDKit          3D

 26 26  0  0  0  0  0  0  0  0999 V2000
  120.3735  124.9442   84.6364 N   0  0  0  0  0  0  0  0  0  0  0  0
  120.0070  123.9486   85.3577 C   0  0  0  0  0  0  0  0  0  0  0  0
  118.7456  123.8693   85.8322 N   0  0  0  0  0  0  0  0  0  0  0  0
  120.9253  122.9832   85.5673 N   0  0  0  0  0  0  0  0  0  0  0  0
  120.9789  122.3950   86.7176 C   0  0  0  0  0  0  0  0  0  0  0  0
  120.1765  122.6635   87.7943 N   0  0  0  0  0  0  0  0  0  0  0  0
  121.8671  121.4137   87.0760 N   0  0  0  0  0  0  0  0  0  0  0  0
  123.1436  121.5432   87.6601 C   0  0  0  0  0  0  0  0  0  0  0  0
  123.3548  121.8967   88.9995 C   0  0  0  0  0  0  0  0  0  0  0  0
  124.6442  122.0548   89.5232 C   0  0  0  0  0  0  0  0  0  0  0  0
  125.7579  121.8797   88.7077 C   0  0  0  0  0  0  0  0  0  0  0  0
  125.5665  121.5534   87.3626 C   0  0  0  0  0  0  0  0  0  0  0  0
  126.7294  121.3809   86.4843 N   0  0  0  0  0  4  0  0  0  0  0  0
  126.8243  120.3159   85.8570 O   0  0  0  0  0  0  0  0  0  0  0  0
  127.5470  122.3098   86.4184 O   0  0  0  0  0  1  0  0  0  0  0  0
  124.2732  121.3940   86.8386 C   0  0  0  0  0  0  0  0  0  0  0  0
  121.3385  124.9942   84.2798 H   0  0  0  0  0  0  0  0  0  0  0  0
  118.4625  123.0652   86.4104 H   0  0  0  0  0  0  0  0  0  0  0  0
  118.0664  124.6127   85.6160 H   0  0  0  0  0  0  0  0  0  0  0  0
  120.2984  122.1373   88.6712 H   0  0  0  0  0  0  0  0  0  0  0  0
  119.4512  123.3917   87.7271 H   0  0  0  0  0  0  0  0  0  0  0  0
  121.5588  120.4481   86.8932 H   0  0  0  0  0  0  0  0  0  0  0  0
  122.4863  122.0541   89.6560 H   0  0  0  0  0  0  0  0  0  0  0  0
  124.7768  122.3182   90.5829 H   0  0  0  0  0  0  0  0  0  0  0  0
  126.7729  121.9964   89.1154 H   0  0  0  0  0  0  0  0  0  0  0  0
  124.1435  121.1499   85.7739 H   0  0  0  0  0  0  0  0  0  0  0  0
  1  2  2  3
  2  3  1  0
  2  4  1  0
  4  5  2  3
  5  6  1  0
  5  7  1  0
  7  8  1  0
  8  9  2  0
  9 10  1  0
 10 11  2  0
 11 12  1  0
 12 13  1  0
 13 14  2  0
 13 15  1  0
 12 16  2  0
 16  8  1  0
  1 17  1  0
  3 18  1  0
  3 19  1  0
  6 20  1  0
  6 21  1  0
  7 22  1  0
  9 23  1  0
 10 24  1  0
 11 25  1  0
 16 26  1  0
M  CHG  2  13   1  15  -1
M  END
>  <loss>  (17) 
0.3892417550086975

>  <score>  (17) 
6.324607849121094

$$$$
WEOIHIYCKWSSBW-UHFFFAOYSA-N
     RDKit          3D

 26 26  0  0  0  0  0  0  0  0999 V2000
  118.8853  123.8176   85.8362 N   0  0  0  0  0  0  0  0  0  0  0  0
  120.0316  123.8668   85.2622 C   0  0  0  0  0  0  0  0  0  0  0  0
  120.3250  124.8494   84.3855 N   0  0  0  0  0  0  0  0  0  0  0  0
  120.8992  122.8743   85.5465 N   0  0  0  0  0  0  0  0  0  0  0  0
  120.9863  122.4439   86.7631 C   0  0  0  0  0  0  0  0  0  0  0  0
  120.2547  122.8877   87.8312 N   0  0  0  0  0  0  0  0  0  0  0  0
  121.8116  121.4349   87.1894 N   0  0  0  0  0  0  0  0  0  0  0  0
  123.1381  121.5394   87.6538 C   0  0  0  0  0  0  0  0  0  0  0  0
  123.3586  121.8983   88.9959 C   0  0  0  0  0  0  0  0  0  0  0  0
  124.6507  122.0398   89.5129 C   0  0  0  0  0  0  0  0  0  0  0  0
  125.7547  121.8402   88.6892 C   0  0  0  0  0  0  0  0  0  0  0  0
  125.5503  121.5073   87.3459 C   0  0  0  0  0  0  0  0  0  0  0  0
  126.7076  121.3222   86.4641 N   0  0  0  0  0  4  0  0  0  0  0  0
  127.2900  122.3395   86.0603 O   0  0  0  0  0  0  0  0  0  0  0  0
  127.0286  120.1636   86.1637 O   0  0  0  0  0  1  0  0  0  0  0  0
  124.2546  121.3624   86.8281 C   0  0  0  0  0  0  0  0  0  0  0  0
  118.6755  123.0614   86.5034 H   0  0  0  0  0  0  0  0  0  0  0  0
  121.2496  124.8760   83.9324 H   0  0  0  0  0  0  0  0  0  0  0  0
  119.6245  125.5729   84.1695 H   0  0  0  0  0  0  0  0  0  0  0  0
  120.4024  122.4755   88.7635 H   0  0  0  0  0  0  0  0  0  0  0  0
  119.5565  123.6339   87.7027 H   0  0  0  0  0  0  0  0  0  0  0  0
  121.4135  120.4852   87.1676 H   0  0  0  0  0  0  0  0  0  0  0  0
  122.4947  122.0719   89.6543 H   0  0  0  0  0  0  0  0  0  0  0  0
  124.7941  122.3086   90.5698 H   0  0  0  0  0  0  0  0  0  0  0  0
  126.7743  121.9429   89.0892 H   0  0  0  0  0  0  0  0  0  0  0  0
  124.1151  121.1082   85.7670 H   0  0  0  0  0  0  0  0  0  0  0  0
  1  2  2  3
  2  3  1  0
  2  4  1  0
  4  5  2  3
  5  6  1  0
  5  7  1  0
  7  8  1  0
  8  9  2  0
  9 10  1  0
 10 11  2  0
 11 12  1  0
 12 13  1  0
 13 14  2  0
 13 15  1  0
 12 16  2  0
 16  8  1  0
  1 17  1  0
  3 18  1  0
  3 19  1  0
  6 20  1  0
  6 21  1  0
  7 22  1  0
  9 23  1  0
 10 24  1  0
 11 25  1  0
 16 26  1  0
M  CHG  2  13   1  15  -1
M  END
>  <loss>  (18) 
0.3917831480503082

>  <score>  (18) 
6.320883750915527

$$$$
WEOIHIYCKWSSBW-UHFFFAOYSA-N
     RDKit          3D

 26 26  0  0  0  0  0  0  0  0999 V2000
  119.0722  123.7005   84.5180 N   0  0  0  0  0  0  0  0  0  0  0  0
  120.0978  123.9620   85.2558 C   0  0  0  0  0  0  0  0  0  0  0  0
  120.3678  125.2244   85.6511 N   0  0  0  0  0  0  0  0  0  0  0  0
  120.9722  122.9949   85.6242 N   0  0  0  0  0  0  0  0  0  0  0  0
  120.9651  122.4459   86.7938 C   0  0  0  0  0  0  0  0  0  0  0  0
  120.1199  122.7567   87.8235 N   0  0  0  0  0  0  0  0  0  0  0  0
  121.8232  121.4655   87.2225 N   0  0  0  0  0  0  0  0  0  0  0  0
  123.1526  121.5926   87.6692 C   0  0  0  0  0  0  0  0  0  0  0  0
  123.3828  121.8269   89.0372 C   0  0  0  0  0  0  0  0  0  0  0  0
  124.6776  121.9385   89.5549 C   0  0  0  0  0  0  0  0  0  0  0  0
  125.7769  121.8043   88.7121 C   0  0  0  0  0  0  0  0  0  0  0  0
  125.5653  121.5480   87.3532 C   0  0  0  0  0  0  0  0  0  0  0  0
  126.7174  121.3950   86.4569 N   0  0  0  0  0  4  0  0  0  0  0  0
  126.8075  120.3489   85.7978 O   0  0  0  0  0  0  0  0  0  0  0  0
  127.5358  122.3252   86.4087 O   0  0  0  0  0  1  0  0  0  0  0  0
  124.2660  121.4310   86.8368 C   0  0  0  0  0  0  0  0  0  0  0  0
  118.8815  122.7314   84.2258 H   0  0  0  0  0  0  0  0  0  0  0  0
  121.1911  125.4148   86.2400 H   0  0  0  0  0  0  0  0  0  0  0  0
  119.7504  125.9972   85.3637 H   0  0  0  0  0  0  0  0  0  0  0  0
  120.1966  122.2576   88.7212 H   0  0  0  0  0  0  0  0  0  0  0  0
  119.4069  123.4899   87.7011 H   0  0  0  0  0  0  0  0  0  0  0  0
  121.4444  120.5078   87.2169 H   0  0  0  0  0  0  0  0  0  0  0  0
  122.5233  121.9247   89.7166 H   0  0  0  0  0  0  0  0  0  0  0  0
  124.8268  122.1321   90.6274 H   0  0  0  0  0  0  0  0  0  0  0  0
  126.7985  121.8986   89.1091 H   0  0  0  0  0  0  0  0  0  0  0  0
  124.1212  121.2105   85.7689 H   0  0  0  0  0  0  0  0  0  0  0  0
  1  2  2  3
  2  3  1  0
  2  4  1  0
  4  5  2  3
  5  6  1  0
  5  7  1  0
  7  8  1  0
  8  9  2  0
  9 10  1  0
 10 11  2  0
 11 12  1  0
 12 13  1  0
 13 14  2  0
 13 15  1  0
 12 16  2  0
 16  8  1  0
  1 17  1  0
  3 18  1  0
  3 19  1  0
  6 20  1  0
  6 21  1  0
  7 22  1  0
  9 23  1  0
 10 24  1  0
 11 25  1  0
 16 26  1  0
M  CHG  2  13   1  15  -1
M  END
>  <loss>  (19) 
0.3932155966758728

>  <score>  (19) 
6.325961112976074

$$$$
WEOIHIYCKWSSBW-UHFFFAOYSA-N
     RDKit          3D

 26 26  0  0  0  0  0  0  0  0999 V2000
  119.7516  124.9733   85.6473 N   0  0  0  0  0  0  0  0  0  0  0  0
  119.6875  123.7075   85.4292 C   0  0  0  0  0  0  0  0  0  0  0  0
  119.4769  123.2428   84.1818 N   0  0  0  0  0  0  0  0  0  0  0  0
  119.7165  122.8550   86.4782 N   0  0  0  0  0  0  0  0  0  0  0  0
  120.8393  122.5413   87.0368 C   0  0  0  0  0  0  0  0  0  0  0  0
  120.7676  121.7528   88.1492 N   0  0  0  0  0  0  0  0  0  0  0  0
  122.1452  122.8812   86.7896 N   0  0  0  0  0  0  0  0  0  0  0  0
  123.2538  122.2884   87.4442 C   0  0  0  0  0  0  0  0  0  0  0  0
  123.3200  122.1732   88.8400 C   0  0  0  0  0  0  0  0  0  0  0  0
  124.4617  121.6660   89.4669 C   0  0  0  0  0  0  0  0  0  0  0  0
  125.5682  121.2942   88.7059 C   0  0  0  0  0  0  0  0  0  0  0  0
  125.5241  121.4466   87.3149 C   0  0  0  0  0  0  0  0  0  0  0  0
  126.6923  121.0802   86.5076 N   0  0  0  0  0  4  0  0  0  0  0  0
  127.2475  121.9765   85.8555 O   0  0  0  0  0  0  0  0  0  0  0  0
  127.0660  119.8987   86.5359 O   0  0  0  0  0  1  0  0  0  0  0  0
  124.3815  121.9582   86.6845 C   0  0  0  0  0  0  0  0  0  0  0  0
  119.9127  125.3239   86.6023 H   0  0  0  0  0  0  0  0  0  0  0  0
  119.4263  122.2282   84.0119 H   0  0  0  0  0  0  0  0  0  0  0  0
  119.3665  123.9023   83.3983 H   0  0  0  0  0  0  0  0  0  0  0  0
  121.6299  121.4705   88.6368 H   0  0  0  0  0  0  0  0  0  0  0  0
  119.8513  121.4402   88.5007 H   0  0  0  0  0  0  0  0  0  0  0  0
  122.3311  123.6105   86.0864 H   0  0  0  0  0  0  0  0  0  0  0  0
  122.4606  122.4865   89.4509 H   0  0  0  0  0  0  0  0  0  0  0  0
  124.4867  121.5602   90.5615 H   0  0  0  0  0  0  0  0  0  0  0  0
  126.4662  120.8857   89.1925 H   0  0  0  0  0  0  0  0  0  0  0  0
  124.3713  122.0998   85.5938 H   0  0  0  0  0  0  0  0  0  0  0  0
  1  2  2  3
  2  3  1  0
  2  4  1  0
  4  5  2  3
  5  6  1  0
  5  7  1  0
  7  8  1  0
  8  9  2  0
  9 10  1  0
 10 11  2  0
 11 12  1  0
 12 13  1  0
 13 14  2  0
 13 15  1  0
 12 16  2  0
 16  8  1  0
  1 17  1  0
  3 18  1  0
  3 19  1  0
  6 20  1  0
  6 21  1  0
  7 22  1  0
  9 23  1  0
 10 24  1  0
 11 25  1  0
 16 26  1  0
M  CHG  2  13   1  15  -1
M  END
>  <loss>  (20) 
0.46062156558036804

>  <score>  (20) 
6.456305980682373

$$$$
WEOIHIYCKWSSBW-UHFFFAOYSA-N
     RDKit          3D

 26 26  0  0  0  0  0  0  0  0999 V2000
  119.6515  124.7729   86.6049 N   0  0  0  0  0  0  0  0  0  0  0  0
  119.7713  123.6163   86.0555 C   0  0  0  0  0  0  0  0  0  0  0  0
  119.6319  123.4798   84.7220 N   0  0  0  0  0  0  0  0  0  0  0  0
  119.9217  122.5255   86.8403 N   0  0  0  0  0  0  0  0  0  0  0  0
  121.0640  122.2631   87.3855 C   0  0  0  0  0  0  0  0  0  0  0  0
  121.1017  121.1987   88.2398 N   0  0  0  0  0  0  0  0  0  0  0  0
  122.2928  122.8716   87.3445 N   0  0  0  0  0  0  0  0  0  0  0  0
  123.4898  122.2677   87.8042 C   0  0  0  0  0  0  0  0  0  0  0  0
  123.7452  122.0645   89.1678 C   0  0  0  0  0  0  0  0  0  0  0  0
  124.9697  121.5486   89.6015 C   0  0  0  0  0  0  0  0  0  0  0  0
  125.9703  121.2563   88.6767 C   0  0  0  0  0  0  0  0  0  0  0  0
  125.7366  121.4968   87.3174 C   0  0  0  0  0  0  0  0  0  0  0  0
  126.7920  121.2145   86.3389 N   0  0  0  0  0  4  0  0  0  0  0  0
  127.6220  122.1067   86.1115 O   0  0  0  0  0  0  0  0  0  0  0  0
  126.8017  120.0948   85.8073 O   0  0  0  0  0  1  0  0  0  0  0  0
  124.5107  122.0173   86.8807 C   0  0  0  0  0  0  0  0  0  0  0  0
  119.7589  124.8724   87.6245 H   0  0  0  0  0  0  0  0  0  0  0  0
  119.7287  122.5515   84.2864 H   0  0  0  0  0  0  0  0  0  0  0  0
  119.4285  124.3039   84.1385 H   0  0  0  0  0  0  0  0  0  0  0  0
  121.9845  120.9418   88.7040 H   0  0  0  0  0  0  0  0  0  0  0  0
  120.2472  120.6525   88.4201 H   0  0  0  0  0  0  0  0  0  0  0  0
  122.3488  123.8241   86.9564 H   0  0  0  0  0  0  0  0  0  0  0  0
  122.9704  122.3148   89.9073 H   0  0  0  0  0  0  0  0  0  0  0  0
  125.1437  121.3732   90.6734 H   0  0  0  0  0  0  0  0  0  0  0  0
  126.9326  120.8413   89.0108 H   0  0  0  0  0  0  0  0  0  0  0  0
  124.3513  122.2287   85.8130 H   0  0  0  0  0  0  0  0  0  0  0  0
  1  2  2  3
  2  3  1  0
  2  4  1  0
  4  5  2  3
  5  6  1  0
  5  7  1  0
  7  8  1  0
  8  9  2  0
  9 10  1  0
 10 11  2  0
 11 12  1  0
 12 13  1  0
 13 14  2  0
 13 15  1  0
 12 16  2  0
 16  8  1  0
  1 17  1  0
  3 18  1  0
  3 19  1  0
  6 20  1  0
  6 21  1  0
  7 22  1  0
  9 23  1  0
 10 24  1  0
 11 25  1  0
 16 26  1  0
M  CHG  2  13   1  15  -1
M  END
>  <loss>  (21) 
0.43899548053741455

>  <score>  (21) 
6.305407524108887

$$$$
WEOIHIYCKWSSBW-UHFFFAOYSA-N
     RDKit          3D

 26 26  0  0  0  0  0  0  0  0999 V2000
  119.5760  124.6481   86.5716 N   0  0  0  0  0  0  0  0  0  0  0  0
  119.7680  123.5183   85.9880 C   0  0  0  0  0  0  0  0  0  0  0  0
  119.6800  123.4229   84.6466 N   0  0  0  0  0  0  0  0  0  0  0  0
  119.9427  122.4084   86.7403 N   0  0  0  0  0  0  0  0  0  0  0  0
  121.0799  122.1746   87.3088 C   0  0  0  0  0  0  0  0  0  0  0  0
  121.1390  121.0840   88.1282 N   0  0  0  0  0  0  0  0  0  0  0  0
  122.2827  122.8340   87.3229 N   0  0  0  0  0  0  0  0  0  0  0  0
  123.4904  122.2656   87.7998 C   0  0  0  0  0  0  0  0  0  0  0  0
  123.7589  122.1282   89.1691 C   0  0  0  0  0  0  0  0  0  0  0  0
  124.9928  121.6469   89.6157 C   0  0  0  0  0  0  0  0  0  0  0  0
  125.9894  121.3239   88.6969 C   0  0  0  0  0  0  0  0  0  0  0  0
  125.7423  121.4991   87.3301 C   0  0  0  0  0  0  0  0  0  0  0  0
  126.7933  121.1843   86.3568 N   0  0  0  0  0  4  0  0  0  0  0  0
  127.3350  122.1299   85.7660 O   0  0  0  0  0  0  0  0  0  0  0  0
  127.0893  119.9919   86.1924 O   0  0  0  0  0  1  0  0  0  0  0  0
  124.5069  121.9848   86.8802 C   0  0  0  0  0  0  0  0  0  0  0  0
  119.6443  124.7163   87.5971 H   0  0  0  0  0  0  0  0  0  0  0  0
  119.8346  122.5159   84.1836 H   0  0  0  0  0  0  0  0  0  0  0  0
  119.4580  124.2569   84.0844 H   0  0  0  0  0  0  0  0  0  0  0  0
  122.0190  120.8478   88.6086 H   0  0  0  0  0  0  0  0  0  0  0  0
  120.3036  120.4974   88.2660 H   0  0  0  0  0  0  0  0  0  0  0  0
  122.3099  123.7997   86.9656 H   0  0  0  0  0  0  0  0  0  0  0  0
  122.9869  122.4033   89.9028 H   0  0  0  0  0  0  0  0  0  0  0  0
  125.1772  121.5229   90.6930 H   0  0  0  0  0  0  0  0  0  0  0  0
  126.9592  120.9358   89.0417 H   0  0  0  0  0  0  0  0  0  0  0  0
  124.3367  122.1451   85.8054 H   0  0  0  0  0  0  0  0  0  0  0  0
  1  2  2  3
  2  3  1  0
  2  4  1  0
  4  5  2  3
  5  6  1  0
  5  7  1  0
  7  8  1  0
  8  9  2  0
  9 10  1  0
 10 11  2  0
 11 12  1  0
 12 13  1  0
 13 14  2  0
 13 15  1  0
 12 16  2  0
 16  8  1  0
  1 17  1  0
  3 18  1  0
  3 19  1  0
  6 20  1  0
  6 21  1  0
  7 22  1  0
  9 23  1  0
 10 24  1  0
 11 25  1  0
 16 26  1  0
M  CHG  2  13   1  15  -1
M  END
>  <loss>  (22) 
0.4364757239818573

>  <score>  (22) 
6.2454047203063965

$$$$
WEOIHIYCKWSSBW-UHFFFAOYSA-N
     RDKit          3D

 26 26  0  0  0  0  0  0  0  0999 V2000
  119.7558  124.8848   85.6450 N   0  0  0  0  0  0  0  0  0  0  0  0
  119.7184  123.6295   85.3678 C   0  0  0  0  0  0  0  0  0  0  0  0
  119.5437  123.2195   84.0959 N   0  0  0  0  0  0  0  0  0  0  0  0
  119.7384  122.7301   86.3772 N   0  0  0  0  0  0  0  0  0  0  0  0
  120.8401  122.4708   87.0019 C   0  0  0  0  0  0  0  0  0  0  0  0
  120.7508  121.6247   88.0698 N   0  0  0  0  0  0  0  0  0  0  0  0
  122.1306  122.9158   86.8663 N   0  0  0  0  0  0  0  0  0  0  0  0
  123.2464  122.3085   87.4949 C   0  0  0  0  0  0  0  0  0  0  0  0
  123.3352  122.1753   88.8878 C   0  0  0  0  0  0  0  0  0  0  0  0
  124.4841  121.6537   89.4891 C   0  0  0  0  0  0  0  0  0  0  0  0
  125.5755  121.2850   88.7051 C   0  0  0  0  0  0  0  0  0  0  0  0
  125.5091  121.4551   87.3170 C   0  0  0  0  0  0  0  0  0  0  0  0
  126.6615  121.0921   86.4858 N   0  0  0  0  0  4  0  0  0  0  0  0
  127.2296  121.9983   85.8591 O   0  0  0  0  0  0  0  0  0  0  0  0
  127.0098  119.9026   86.4699 O   0  0  0  0  0  1  0  0  0  0  0  0
  124.3592  121.9812   86.7123 C   0  0  0  0  0  0  0  0  0  0  0  0
  119.8895  125.1935   86.6185 H   0  0  0  0  0  0  0  0  0  0  0  0
  119.5144  122.2131   83.8787 H   0  0  0  0  0  0  0  0  0  0  0  0
  119.4397  123.9126   83.3411 H   0  0  0  0  0  0  0  0  0  0  0  0
  121.5958  121.3814   88.6062 H   0  0  0  0  0  0  0  0  0  0  0  0
  119.8384  121.2297   88.3390 H   0  0  0  0  0  0  0  0  0  0  0  0
  122.2987  123.7404   86.2724 H   0  0  0  0  0  0  0  0  0  0  0  0
  122.4879  122.4860   89.5168 H   0  0  0  0  0  0  0  0  0  0  0  0
  124.5267  121.5341   90.5817 H   0  0  0  0  0  0  0  0  0  0  0  0
  126.4790  120.8652   89.1715 H   0  0  0  0  0  0  0  0  0  0  0  0
  124.3317  122.1366   85.6237 H   0  0  0  0  0  0  0  0  0  0  0  0
  1  2  2  3
  2  3  1  0
  2  4  1  0
  4  5  2  3
  5  6  1  0
  5  7  1  0
  7  8  1  0
  8  9  2  0
  9 10  1  0
 10 11  2  0
 11 12  1  0
 12 13  1  0
 13 14  2  0
 13 15  1  0
 12 16  2  0
 16  8  1  0
  1 17  1  0
  3 18  1  0
  3 19  1  0
  6 20  1  0
  6 21  1  0
  7 22  1  0
  9 23  1  0
 10 24  1  0
 11 25  1  0
 16 26  1  0
M  CHG  2  13   1  15  -1
M  END
>  <loss>  (23) 
0.45819273591041565

>  <score>  (23) 
6.198183059692383

$$$$
WEOIHIYCKWSSBW-UHFFFAOYSA-N
     RDKit          3D

 26 26  0  0  0  0  0  0  0  0999 V2000
  119.6177  123.4701   84.5410 N   0  0  0  0  0  0  0  0  0  0  0  0
  119.5797  123.2897   85.8106 C   0  0  0  0  0  0  0  0  0  0  0  0
  118.4974  122.7400   86.3994 N   0  0  0  0  0  0  0  0  0  0  0  0
  120.6470  123.7113   86.5188 N   0  0  0  0  0  0  0  0  0  0  0  0
  121.2720  122.8696   87.2763 C   0  0  0  0  0  0  0  0  0  0  0  0
  120.9706  121.5437   87.4307 N   0  0  0  0  0  0  0  0  0  0  0  0
  122.3765  123.1567   88.0370 N   0  0  0  0  0  0  0  0  0  0  0  0
  123.5537  122.3944   88.1763 C   0  0  0  0  0  0  0  0  0  0  0  0
  123.8490  121.8291   89.4299 C   0  0  0  0  0  0  0  0  0  0  0  0
  125.0117  121.0800   89.6395 C   0  0  0  0  0  0  0  0  0  0  0  0
  125.9159  120.8940   88.5979 C   0  0  0  0  0  0  0  0  0  0  0  0
  125.6475  121.4715   87.3523 C   0  0  0  0  0  0  0  0  0  0  0  0
  126.6083  121.3037   86.2570 N   0  0  0  0  0  4  0  0  0  0  0  0
  126.5779  120.2373   85.6252 O   0  0  0  0  0  0  0  0  0  0  0  0
  127.4016  122.2292   86.0343 O   0  0  0  0  0  1  0  0  0  0  0  0
  124.4800  122.2202   87.1412 C   0  0  0  0  0  0  0  0  0  0  0  0
  120.4508  123.8909   84.1054 H   0  0  0  0  0  0  0  0  0  0  0  0
  118.4812  122.6013   87.4199 H   0  0  0  0  0  0  0  0  0  0  0  0
  117.6874  122.4592   85.8285 H   0  0  0  0  0  0  0  0  0  0  0  0
  121.5347  120.9574   88.0623 H   0  0  0  0  0  0  0  0  0  0  0  0
  120.1795  121.1319   86.9153 H   0  0  0  0  0  0  0  0  0  0  0  0
  122.3413  124.0364   88.5715 H   0  0  0  0  0  0  0  0  0  0  0  0
  123.1492  121.9796   90.2652 H   0  0  0  0  0  0  0  0  0  0  0  0
  125.2112  120.6382   90.6269 H   0  0  0  0  0  0  0  0  0  0  0  0
  126.8294  120.3009   88.7521 H   0  0  0  0  0  0  0  0  0  0  0  0
  124.2914  122.6729   86.1566 H   0  0  0  0  0  0  0  0  0  0  0  0
  1  2  2  3
  2  3  1  0
  2  4  1  0
  4  5  2  3
  5  6  1  0
  5  7  1  0
  7  8  1  0
  8  9  2  0
  9 10  1  0
 10 11  2  0
 11 12  1  0
 12 13  1  0
 13 14  2  0
 13 15  1  0
 12 16  2  0
 16  8  1  0
  1 17  1  0
  3 18  1  0
  3 19  1  0
  6 20  1  0
  6 21  1  0
  7 22  1  0
  9 23  1  0
 10 24  1  0
 11 25  1  0
 16 26  1  0
M  CHG  2  13   1  15  -1
M  END
>  <loss>  (24) 
0.4448889493942261

>  <score>  (24) 
5.397481441497803

$$$$
WEOIHIYCKWSSBW-UHFFFAOYSA-N
     RDKit          3D

 26 26  0  0  0  0  0  0  0  0999 V2000
  119.6910  123.7175   84.3774 N   0  0  0  0  0  0  0  0  0  0  0  0
  119.7052  123.3605   85.6095 C   0  0  0  0  0  0  0  0  0  0  0  0
  118.6808  122.6603   86.1391 N   0  0  0  0  0  0  0  0  0  0  0  0
  120.7643  123.7534   86.3462 N   0  0  0  0  0  0  0  0  0  0  0  0
  121.2865  122.9238   87.1899 C   0  0  0  0  0  0  0  0  0  0  0  0
  120.8801  121.6363   87.4136 N   0  0  0  0  0  0  0  0  0  0  0  0
  122.3699  123.1838   87.9896 N   0  0  0  0  0  0  0  0  0  0  0  0
  123.5388  122.4113   88.1418 C   0  0  0  0  0  0  0  0  0  0  0  0
  123.8179  121.8474   89.3998 C   0  0  0  0  0  0  0  0  0  0  0  0
  124.9717  121.0884   89.6221 C   0  0  0  0  0  0  0  0  0  0  0  0
  125.8834  120.8908   88.5892 C   0  0  0  0  0  0  0  0  0  0  0  0
  125.6313  121.4667   87.3394 C   0  0  0  0  0  0  0  0  0  0  0  0
  126.6002  121.2865   86.2532 N   0  0  0  0  0  4  0  0  0  0  0  0
  126.6472  120.1757   85.7044 O   0  0  0  0  0  0  0  0  0  0  0  0
  127.3231  122.2479   85.9553 O   0  0  0  0  0  1  0  0  0  0  0  0
  124.4727  122.2252   87.1156 C   0  0  0  0  0  0  0  0  0  0  0  0
  120.4803  124.2518   83.9869 H   0  0  0  0  0  0  0  0  0  0  0  0
  118.7061  122.3806   87.1301 H   0  0  0  0  0  0  0  0  0  0  0  0
  117.8735  122.4055   85.5525 H   0  0  0  0  0  0  0  0  0  0  0  0
  121.3669  121.0565   88.1120 H   0  0  0  0  0  0  0  0  0  0  0  0
  120.0873  121.2470   86.8836 H   0  0  0  0  0  0  0  0  0  0  0  0
  122.3237  124.0488   88.5468 H   0  0  0  0  0  0  0  0  0  0  0  0
  123.1121  122.0069   90.2284 H   0  0  0  0  0  0  0  0  0  0  0  0
  125.1585  120.6481   90.6126 H   0  0  0  0  0  0  0  0  0  0  0  0
  126.7900  120.2899   88.7534 H   0  0  0  0  0  0  0  0  0  0  0  0
  124.2969  122.6764   86.1279 H   0  0  0  0  0  0  0  0  0  0  0  0
  1  2  2  3
  2  3  1  0
  2  4  1  0
  4  5  2  3
  5  6  1  0
  5  7  1  0
  7  8  1  0
  8  9  2  0
  9 10  1  0
 10 11  2  0
 11 12  1  0
 12 13  1  0
 13 14  2  0
 13 15  1  0
 12 16  2  0
 16  8  1  0
  1 17  1  0
  3 18  1  0
  3 19  1  0
  6 20  1  0
  6 21  1  0
  7 22  1  0
  9 23  1  0
 10 24  1  0
 11 25  1  0
 16 26  1  0
M  CHG  2  13   1  15  -1
M  END
>  <loss>  (25) 
0.43418923020362854

>  <score>  (25) 
5.149469375610352

$$$$
