WFMVFIYQPAXONU-UHFFFAOYSA-N
     RDKit          3D

 42 42  0  0  0  0  0  0  0  0999 V2000
  121.8087  120.0200   91.6568 C   0  0  0  0  0  0  0  0  0  0  0  0
  122.2001  121.4127   91.1863 C   0  0  0  0  0  0  0  0  0  0  0  0
  121.0453  122.4143   91.2231 C   0  0  0  0  0  0  0  0  0  0  0  0
  120.1691  122.2523   90.0308 N   0  0  0  0  0  0  0  0  0  0  0  0
  119.1982  121.1265   90.1436 C   0  0  0  0  0  0  0  0  0  0  0  0
  117.7512  121.5494   89.8925 C   0  0  0  0  0  0  0  0  0  0  0  0
  116.8236  120.3442   89.8588 C   0  0  0  0  0  0  0  0  0  0  0  0
  119.5582  123.6766   89.3146 S   0  0  0  0  0  6  0  0  0  0  0  0
  120.2195  124.8067   89.9324 O   0  0  0  0  0  0  0  0  0  0  0  0
  118.1138  123.5823   89.2771 O   0  0  0  0  0  0  0  0  0  0  0  0
  120.1293  123.5418   87.6380 C   0  0  0  0  0  0  0  0  0  0  0  0
  121.4899  123.4025   87.3650 C   0  0  0  0  0  0  0  0  0  0  0  0
  121.9244  123.3074   86.0378 C   0  0  0  0  0  0  0  0  0  0  0  0
  121.0086  123.3632   84.9832 C   0  0  0  0  0  0  0  0  0  0  0  0
  121.3607  123.2758   83.6206 N   0  0  0  0  0  0  0  0  0  0  0  0
  122.4391  122.5890   83.0497 C   0  0  0  0  0  0  0  0  0  0  0  0
  122.8892  121.5326   83.4946 O   0  0  0  0  0  0  0  0  0  0  0  0
  122.9920  123.2531   81.7591 C   0  0  0  0  0  0  0  0  0  0  0  0
  124.7665  123.1788   81.7020 Cl  0  0  0  0  0  0  0  0  0  0  0  0
  122.4685  124.9647   81.7055 Cl  0  0  0  0  0  0  0  0  0  0  0  0
  122.2969  122.3851   80.3603 Cl  0  0  0  0  0  0  0  0  0  0  0  0
  119.6452  123.5213   85.2750 C   0  0  0  0  0  0  0  0  0  0  0  0
  119.2027  123.6139   86.5972 C   0  0  0  0  0  0  0  0  0  0  0  0
  121.8011  119.9931   92.7565 H   0  0  0  0  0  0  0  0  0  0  0  0
  120.8063  119.7729   91.2771 H   0  0  0  0  0  0  0  0  0  0  0  0
  122.5356  119.2869   91.2771 H   0  0  0  0  0  0  0  0  0  0  0  0
  123.0060  121.7861   91.8353 H   0  0  0  0  0  0  0  0  0  0  0  0
  122.5181  121.3230   90.1371 H   0  0  0  0  0  0  0  0  0  0  0  0
  120.4509  122.2466   92.1333 H   0  0  0  0  0  0  0  0  0  0  0  0
  121.4608  123.4328   91.2204 H   0  0  0  0  0  0  0  0  0  0  0  0
  119.4697  120.3560   89.4070 H   0  0  0  0  0  0  0  0  0  0  0  0
  119.2535  120.7506   91.1759 H   0  0  0  0  0  0  0  0  0  0  0  0
  117.4304  122.2266   90.6978 H   0  0  0  0  0  0  0  0  0  0  0  0
  117.7005  122.0552   88.9170 H   0  0  0  0  0  0  0  0  0  0  0  0
  116.5860  120.0355   90.8875 H   0  0  0  0  0  0  0  0  0  0  0  0
  115.8953  120.6106   89.3323 H   0  0  0  0  0  0  0  0  0  0  0  0
  117.3188  119.5150   89.3323 H   0  0  0  0  0  0  0  0  0  0  0  0
  122.2181  123.3676   88.1887 H   0  0  0  0  0  0  0  0  0  0  0  0
  122.9965  123.1877   85.8227 H   0  0  0  0  0  0  0  0  0  0  0  0
  120.7484  123.7798   82.9635 H   0  0  0  0  0  0  0  0  0  0  0  0
  118.9161  123.5731   84.4531 H   0  0  0  0  0  0  0  0  0  0  0  0
  118.1323  123.7425   86.8158 H   0  0  0  0  0  0  0  0  0  0  0  0
  1  2  1  0
  2  3  1  0
  3  4  1  0
  4  5  1  0
  5  6  1  0
  6  7  1  0
  4  8  1  0
  8  9  2  0
  8 10  2  0
  8 11  1  0
 11 12  2  0
 12 13  1  0
 13 14  2  0
 14 15  1  0
 15 16  1  0
 16 17  2  0
 16 18  1  0
 18 19  1  0
 18 20  1  0
 18 21  1  0
 14 22  1  0
 22 23  2  0
 23 11  1  0
  1 24  1  0
  1 25  1  0
  1 26  1  0
  2 27  1  0
  2 28  1  0
  3 29  1  0
  3 30  1  0
  5 31  1  0
  5 32  1  0
  6 33  1  0
  6 34  1  0
  7 35  1  0
  7 36  1  0
  7 37  1  0
 12 38  1  0
 13 39  1  0
 15 40  1  0
 22 41  1  0
 23 42  1  0
M  END
>  <loss>  (1) 
0.7000582218170166

>  <score>  (1) 
-0.20275133848190308

$$$$
WFMVFIYQPAXONU-UHFFFAOYSA-N
     RDKit          3D

 42 42  0  0  0  0  0  0  0  0999 V2000
  121.9015  119.8874   91.6041 C   0  0  0  0  0  0  0  0  0  0  0  0
  122.3244  121.2995   91.2281 C   0  0  0  0  0  0  0  0  0  0  0  0
  121.1944  122.3234   91.3407 C   0  0  0  0  0  0  0  0  0  0  0  0
  120.2713  122.2194   90.1776 N   0  0  0  0  0  0  0  0  0  0  0  0
  119.2605  121.1309   90.3045 C   0  0  0  0  0  0  0  0  0  0  0  0
  117.8192  121.6383   90.2723 C   0  0  0  0  0  0  0  0  0  0  0  0
  116.8419  120.5029   90.0084 C   0  0  0  0  0  0  0  0  0  0  0  0
  119.6936  123.6805   89.5096 S   0  0  0  0  0  6  0  0  0  0  0  0
  120.4093  124.7722   90.1357 O   0  0  0  0  0  0  0  0  0  0  0  0
  118.2463  123.6372   89.5067 O   0  0  0  0  0  0  0  0  0  0  0  0
  120.2181  123.5654   87.8164 C   0  0  0  0  0  0  0  0  0  0  0  0
  121.5734  123.4648   87.5027 C   0  0  0  0  0  0  0  0  0  0  0  0
  121.9707  123.3849   86.1629 C   0  0  0  0  0  0  0  0  0  0  0  0
  121.0228  123.4174   85.1361 C   0  0  0  0  0  0  0  0  0  0  0  0
  121.3365  123.3428   83.7635 N   0  0  0  0  0  0  0  0  0  0  0  0
  122.4189  122.6917   83.1591 C   0  0  0  0  0  0  0  0  0  0  0  0
  123.0048  121.7313   83.6599 O   0  0  0  0  0  0  0  0  0  0  0  0
  122.7879  123.2566   81.7601 C   0  0  0  0  0  0  0  0  0  0  0  0
  124.5442  123.2261   81.4924 Cl  0  0  0  0  0  0  0  0  0  0  0  0
  122.1978  124.9423   81.6302 Cl  0  0  0  0  0  0  0  0  0  0  0  0
  121.9633  122.2524   80.5335 Cl  0  0  0  0  0  0  0  0  0  0  0  0
  119.6648  123.5366   85.4687 C   0  0  0  0  0  0  0  0  0  0  0  0
  119.2593  123.6138   86.8037 C   0  0  0  0  0  0  0  0  0  0  0  0
  121.8731  119.7926   92.6997 H   0  0  0  0  0  0  0  0  0  0  0  0
  120.9024  119.6819   91.1923 H   0  0  0  0  0  0  0  0  0  0  0  0
  122.6232  119.1665   91.1923 H   0  0  0  0  0  0  0  0  0  0  0  0
  123.1419  121.6079   91.8963 H   0  0  0  0  0  0  0  0  0  0  0  0
  122.6355  121.2746   90.1733 H   0  0  0  0  0  0  0  0  0  0  0  0
  120.6304  122.1382   92.2667 H   0  0  0  0  0  0  0  0  0  0  0  0
  121.6321  123.3324   91.3553 H   0  0  0  0  0  0  0  0  0  0  0  0
  119.4009  120.4251   89.4725 H   0  0  0  0  0  0  0  0  0  0  0  0
  119.4163  120.6538   91.2833 H   0  0  0  0  0  0  0  0  0  0  0  0
  117.5796  122.1000   91.2416 H   0  0  0  0  0  0  0  0  0  0  0  0
  117.7268  122.3733   89.4591 H   0  0  0  0  0  0  0  0  0  0  0  0
  116.4890  120.0929   90.9662 H   0  0  0  0  0  0  0  0  0  0  0  0
  115.9843  120.8833   89.4342 H   0  0  0  0  0  0  0  0  0  0  0  0
  117.3457  119.7114   89.4342 H   0  0  0  0  0  0  0  0  0  0  0  0
  122.3264  123.4485   88.3044 H   0  0  0  0  0  0  0  0  0  0  0  0
  123.0389  123.2956   85.9158 H   0  0  0  0  0  0  0  0  0  0  0  0
  120.6889  123.8276   83.1259 H   0  0  0  0  0  0  0  0  0  0  0  0
  118.9104  123.5698   84.6689 H   0  0  0  0  0  0  0  0  0  0  0  0
  118.1927  123.7120   87.0543 H   0  0  0  0  0  0  0  0  0  0  0  0
  1  2  1  0
  2  3  1  0
  3  4  1  0
  4  5  1  0
  5  6  1  0
  6  7  1  0
  4  8  1  0
  8  9  2  0
  8 10  2  0
  8 11  1  0
 11 12  2  0
 12 13  1  0
 13 14  2  0
 14 15  1  0
 15 16  1  0
 16 17  2  0
 16 18  1  0
 18 19  1  0
 18 20  1  0
 18 21  1  0
 14 22  1  0
 22 23  2  0
 23 11  1  0
  1 24  1  0
  1 25  1  0
  1 26  1  0
  2 27  1  0
  2 28  1  0
  3 29  1  0
  3 30  1  0
  5 31  1  0
  5 32  1  0
  6 33  1  0
  6 34  1  0
  7 35  1  0
  7 36  1  0
  7 37  1  0
 12 38  1  0
 13 39  1  0
 15 40  1  0
 22 41  1  0
 23 42  1  0
M  END
>  <loss>  (2) 
0.7006791830062866

>  <score>  (2) 
-0.3468227982521057

$$$$
WFMVFIYQPAXONU-UHFFFAOYSA-N
     RDKit          3D

 42 42  0  0  0  0  0  0  0  0999 V2000
  117.7287  119.4152   90.2786 C   0  0  0  0  0  0  0  0  0  0  0  0
  118.0958  120.8911   90.2660 C   0  0  0  0  0  0  0  0  0  0  0  0
  119.4995  121.1649   89.7263 C   0  0  0  0  0  0  0  0  0  0  0  0
  119.9984  122.4821   90.1574 N   0  0  0  0  0  0  0  0  0  0  0  0
  121.1266  122.5964   91.1066 C   0  0  0  0  0  0  0  0  0  0  0  0
  121.9542  121.3286   91.3140 C   0  0  0  0  0  0  0  0  0  0  0  0
  123.2997  121.5717   91.9781 C   0  0  0  0  0  0  0  0  0  0  0  0
  119.4283  123.8753   89.3828 S   0  0  0  0  0  6  0  0  0  0  0  0
  120.1074  125.0229   89.9466 O   0  0  0  0  0  0  0  0  0  0  0  0
  117.9829  123.8182   89.3177 O   0  0  0  0  0  0  0  0  0  0  0  0
  120.0295  123.6628   87.7199 C   0  0  0  0  0  0  0  0  0  0  0  0
  119.1316  123.6781   86.6520 C   0  0  0  0  0  0  0  0  0  0  0  0
  119.6111  123.5371   85.3465 C   0  0  0  0  0  0  0  0  0  0  0  0
  120.9840  123.3925   85.0961 C   0  0  0  0  0  0  0  0  0  0  0  0
  121.3734  123.2519   83.7483 N   0  0  0  0  0  0  0  0  0  0  0  0
  122.5250  122.6364   83.2421 C   0  0  0  0  0  0  0  0  0  0  0  0
  123.1638  121.7771   83.8503 O   0  0  0  0  0  0  0  0  0  0  0  0
  122.9020  123.0971   81.8076 C   0  0  0  0  0  0  0  0  0  0  0  0
  124.6636  123.1325   81.5801 Cl  0  0  0  0  0  0  0  0  0  0  0  0
  122.1582  121.9513   80.6553 Cl  0  0  0  0  0  0  0  0  0  0  0  0
  122.2332  124.7331   81.5203 Cl  0  0  0  0  0  0  0  0  0  0  0  0
  121.8723  123.4043   86.1745 C   0  0  0  0  0  0  0  0  0  0  0  0
  121.4002  123.5482   87.4844 C   0  0  0  0  0  0  0  0  0  0  0  0
  117.6423  119.0677   91.3187 H   0  0  0  0  0  0  0  0  0  0  0  0
  116.7676  119.2719   89.7631 H   0  0  0  0  0  0  0  0  0  0  0  0
  118.5108  118.8384   89.7631 H   0  0  0  0  0  0  0  0  0  0  0  0
  117.3698  121.4252   89.6354 H   0  0  0  0  0  0  0  0  0  0  0  0
  118.0765  121.2386   91.3095 H   0  0  0  0  0  0  0  0  0  0  0  0
  120.1825  120.3860   90.0961 H   0  0  0  0  0  0  0  0  0  0  0  0
  119.4534  121.1572   88.6273 H   0  0  0  0  0  0  0  0  0  0  0  0
  121.8009  123.3824   90.7357 H   0  0  0  0  0  0  0  0  0  0  0  0
  120.6728  122.8193   92.0835 H   0  0  0  0  0  0  0  0  0  0  0  0
  121.3764  120.6376   91.9454 H   0  0  0  0  0  0  0  0  0  0  0  0
  122.1614  120.9163   90.3155 H   0  0  0  0  0  0  0  0  0  0  0  0
  123.1784  121.5498   93.0712 H   0  0  0  0  0  0  0  0  0  0  0  0
  124.0069  120.7868   91.6718 H   0  0  0  0  0  0  0  0  0  0  0  0
  123.6875  122.5545   91.6718 H   0  0  0  0  0  0  0  0  0  0  0  0
  118.0541  123.8002   86.8361 H   0  0  0  0  0  0  0  0  0  0  0  0
  118.9030  123.5397   84.5048 H   0  0  0  0  0  0  0  0  0  0  0  0
  120.7312  123.6516   83.0492 H   0  0  0  0  0  0  0  0  0  0  0  0
  122.9521  123.2997   85.9925 H   0  0  0  0  0  0  0  0  0  0  0  0
  122.1080  123.5709   88.3262 H   0  0  0  0  0  0  0  0  0  0  0  0
  1  2  1  0
  2  3  1  0
  3  4  1  0
  4  5  1  0
  5  6  1  0
  6  7  1  0
  4  8  1  0
  8  9  2  0
  8 10  2  0
  8 11  1  0
 11 12  2  0
 12 13  1  0
 13 14  2  0
 14 15  1  0
 15 16  1  0
 16 17  2  0
 16 18  1  0
 18 19  1  0
 18 20  1  0
 18 21  1  0
 14 22  1  0
 22 23  2  0
 23 11  1  0
  1 24  1  0
  1 25  1  0
  1 26  1  0
  2 27  1  0
  2 28  1  0
  3 29  1  0
  3 30  1  0
  5 31  1  0
  5 32  1  0
  6 33  1  0
  6 34  1  0
  7 35  1  0
  7 36  1  0
  7 37  1  0
 12 38  1  0
 13 39  1  0
 15 40  1  0
 22 41  1  0
 23 42  1  0
M  END
>  <loss>  (3) 
0.6891822814941406

>  <score>  (3) 
-1.2445776462554932

$$$$
WFMVFIYQPAXONU-UHFFFAOYSA-N
     RDKit          3D

 42 42  0  0  0  0  0  0  0  0999 V2000
  117.3729  119.6270   90.0368 C   0  0  0  0  0  0  0  0  0  0  0  0
  117.9403  121.0157   90.2877 C   0  0  0  0  0  0  0  0  0  0  0  0
  119.3121  121.2373   89.6505 C   0  0  0  0  0  0  0  0  0  0  0  0
  119.8717  122.5509   90.0123 N   0  0  0  0  0  0  0  0  0  0  0  0
  121.0279  122.6607   90.9278 C   0  0  0  0  0  0  0  0  0  0  0  0
  121.7965  121.3660   91.1890 C   0  0  0  0  0  0  0  0  0  0  0  0
  123.1089  121.5662   91.9295 C   0  0  0  0  0  0  0  0  0  0  0  0
  119.3350  123.9316   89.1928 S   0  0  0  0  0  6  0  0  0  0  0  0
  120.0069  125.0858   89.7516 O   0  0  0  0  0  0  0  0  0  0  0  0
  117.8917  123.8837   89.0875 O   0  0  0  0  0  0  0  0  0  0  0  0
  119.9816  123.6796   87.5525 C   0  0  0  0  0  0  0  0  0  0  0  0
  119.1099  123.6366   86.4640 C   0  0  0  0  0  0  0  0  0  0  0  0
  119.6244  123.4648   85.1756 C   0  0  0  0  0  0  0  0  0  0  0  0
  121.0061  123.3471   84.9625 C   0  0  0  0  0  0  0  0  0  0  0  0
  121.4316  123.1720   83.6297 N   0  0  0  0  0  0  0  0  0  0  0  0
  122.5954  122.5426   83.1707 C   0  0  0  0  0  0  0  0  0  0  0  0
  123.1884  121.6630   83.7959 O   0  0  0  0  0  0  0  0  0  0  0  0
  123.0500  123.0169   81.7633 C   0  0  0  0  0  0  0  0  0  0  0  0
  124.8113  122.8840   81.5721 Cl  0  0  0  0  0  0  0  0  0  0  0  0
  122.2233  121.9956   80.5519 Cl  0  0  0  0  0  0  0  0  0  0  0  0
  122.5542  124.7213   81.5282 Cl  0  0  0  0  0  0  0  0  0  0  0  0
  121.8673  123.4174   86.0605 C   0  0  0  0  0  0  0  0  0  0  0  0
  121.3601  123.5924   87.3534 C   0  0  0  0  0  0  0  0  0  0  0  0
  117.1714  119.1339   90.9993 H   0  0  0  0  0  0  0  0  0  0  0  0
  116.4370  119.7111   89.4649 H   0  0  0  0  0  0  0  0  0  0  0  0
  118.0999  119.0317   89.4649 H   0  0  0  0  0  0  0  0  0  0  0  0
  117.2407  121.7576   89.8752 H   0  0  0  0  0  0  0  0  0  0  0  0
  118.0673  121.1221   91.3751 H   0  0  0  0  0  0  0  0  0  0  0  0
  119.9977  120.4496   89.9961 H   0  0  0  0  0  0  0  0  0  0  0  0
  119.1935  121.2029   88.5574 H   0  0  0  0  0  0  0  0  0  0  0  0
  121.7308  123.3892   90.4974 H   0  0  0  0  0  0  0  0  0  0  0  0
  120.6106  122.9610   91.9002 H   0  0  0  0  0  0  0  0  0  0  0  0
  121.1588  120.6999   91.7888 H   0  0  0  0  0  0  0  0  0  0  0  0
  122.0468  120.9400   90.2062 H   0  0  0  0  0  0  0  0  0  0  0  0
  122.9261  121.5383   93.0138 H   0  0  0  0  0  0  0  0  0  0  0  0
  123.8106  120.7647   91.6552 H   0  0  0  0  0  0  0  0  0  0  0  0
  123.5397  122.5404   91.6552 H   0  0  0  0  0  0  0  0  0  0  0  0
  118.0255  123.7371   86.6185 H   0  0  0  0  0  0  0  0  0  0  0  0
  118.9371  123.4214   84.3178 H   0  0  0  0  0  0  0  0  0  0  0  0
  120.8093  123.5546   82.9036 H   0  0  0  0  0  0  0  0  0  0  0  0
  122.9535  123.3344   85.9076 H   0  0  0  0  0  0  0  0  0  0  0  0
  122.0464  123.6610   88.2103 H   0  0  0  0  0  0  0  0  0  0  0  0
  1  2  1  0
  2  3  1  0
  3  4  1  0
  4  5  1  0
  5  6  1  0
  6  7  1  0
  4  8  1  0
  8  9  2  0
  8 10  2  0
  8 11  1  0
 11 12  2  0
 12 13  1  0
 13 14  2  0
 14 15  1  0
 15 16  1  0
 16 17  2  0
 16 18  1  0
 18 19  1  0
 18 20  1  0
 18 21  1  0
 14 22  1  0
 22 23  2  0
 23 11  1  0
  1 24  1  0
  1 25  1  0
  1 26  1  0
  2 27  1  0
  2 28  1  0
  3 29  1  0
  3 30  1  0
  5 31  1  0
  5 32  1  0
  6 33  1  0
  6 34  1  0
  7 35  1  0
  7 36  1  0
  7 37  1  0
 12 38  1  0
 13 39  1  0
 15 40  1  0
 22 41  1  0
 23 42  1  0
M  END
>  <loss>  (4) 
0.7061201930046082

>  <score>  (4) 
-3.5068581104278564

$$$$
WFMVFIYQPAXONU-UHFFFAOYSA-N
     RDKit          3D

 42 42  0  0  0  0  0  0  0  0999 V2000
  120.9275  120.9537   91.6669 C   0  0  0  0  0  0  0  0  0  0  0  0
  121.2441  122.3224   91.0831 C   0  0  0  0  0  0  0  0  0  0  0  0
  119.9992  123.1220   90.6971 C   0  0  0  0  0  0  0  0  0  0  0  0
  119.4240  122.6177   89.4202 N   0  0  0  0  0  0  0  0  0  0  0  0
  118.6945  121.3245   89.5559 C   0  0  0  0  0  0  0  0  0  0  0  0
  117.2602  121.3822   89.0313 C   0  0  0  0  0  0  0  0  0  0  0  0
  116.6387  119.9949   88.9749 C   0  0  0  0  0  0  0  0  0  0  0  0
  118.6935  123.7653   88.3888 S   0  0  0  0  0  6  0  0  0  0  0  0
  118.9251  125.0805   88.9482 O   0  0  0  0  0  0  0  0  0  0  0  0
  117.3552  123.3086   88.0772 O   0  0  0  0  0  0  0  0  0  0  0  0
  119.6518  123.6132   86.9009 C   0  0  0  0  0  0  0  0  0  0  0  0
  121.0402  123.4973   86.9646 C   0  0  0  0  0  0  0  0  0  0  0  0
  121.7816  123.3881   85.7823 C   0  0  0  0  0  0  0  0  0  0  0  0
  121.1445  123.4066   84.5383 C   0  0  0  0  0  0  0  0  0  0  0  0
  121.8143  123.3027   83.3018 N   0  0  0  0  0  0  0  0  0  0  0  0
  122.9628  122.5602   83.0014 C   0  0  0  0  0  0  0  0  0  0  0  0
  123.2251  121.4707   83.5120 O   0  0  0  0  0  0  0  0  0  0  0  0
  123.8627  123.2103   81.9152 C   0  0  0  0  0  0  0  0  0  0  0  0
  125.5848  122.9192   82.2420 Cl  0  0  0  0  0  0  0  0  0  0  0  0
  123.5571  124.9743   81.8743 Cl  0  0  0  0  0  0  0  0  0  0  0  0
  123.4096  122.5019   80.3385 Cl  0  0  0  0  0  0  0  0  0  0  0  0
  119.7486  123.5416   84.4918 C   0  0  0  0  0  0  0  0  0  0  0  0
  119.0006  123.6480   85.6673 C   0  0  0  0  0  0  0  0  0  0  0  0
  120.9409  121.0116   92.7653 H   0  0  0  0  0  0  0  0  0  0  0  0
  119.9314  120.6323   91.3288 H   0  0  0  0  0  0  0  0  0  0  0  0
  121.6815  120.2276   91.3288 H   0  0  0  0  0  0  0  0  0  0  0  0
  121.8098  122.8977   91.8307 H   0  0  0  0  0  0  0  0  0  0  0  0
  121.8212  122.1562   90.1616 H   0  0  0  0  0  0  0  0  0  0  0  0
  119.2473  123.0265   91.4943 H   0  0  0  0  0  0  0  0  0  0  0  0
  120.2836  124.1763   90.5644 H   0  0  0  0  0  0  0  0  0  0  0  0
  119.2416  120.5542   88.9926 H   0  0  0  0  0  0  0  0  0  0  0  0
  118.6398  121.0921   90.6296 H   0  0  0  0  0  0  0  0  0  0  0  0
  116.6594  122.0176   89.6987 H   0  0  0  0  0  0  0  0  0  0  0  0
  117.2783  121.7974   88.0128 H   0  0  0  0  0  0  0  0  0  0  0  0
  116.4732  119.6255   89.9977 H   0  0  0  0  0  0  0  0  0  0  0  0
  115.6771  120.0453   88.4431 H   0  0  0  0  0  0  0  0  0  0  0  0
  117.3164  119.3109   88.4431 H   0  0  0  0  0  0  0  0  0  0  0  0
  121.5502  123.4918   87.9392 H   0  0  0  0  0  0  0  0  0  0  0  0
  122.8758  123.2868   85.8327 H   0  0  0  0  0  0  0  0  0  0  0  0
  121.4081  123.8399   82.5225 H   0  0  0  0  0  0  0  0  0  0  0  0
  119.2369  123.5639   83.5183 H   0  0  0  0  0  0  0  0  0  0  0  0
  117.9071  123.7582   85.6205 H   0  0  0  0  0  0  0  0  0  0  0  0
  1  2  1  0
  2  3  1  0
  3  4  1  0
  4  5  1  0
  5  6  1  0
  6  7  1  0
  4  8  1  0
  8  9  2  0
  8 10  2  0
  8 11  1  0
 11 12  2  0
 12 13  1  0
 13 14  2  0
 14 15  1  0
 15 16  1  0
 16 17  2  0
 16 18  1  0
 18 19  1  0
 18 20  1  0
 18 21  1  0
 14 22  1  0
 22 23  2  0
 23 11  1  0
  1 24  1  0
  1 25  1  0
  1 26  1  0
  2 27  1  0
  2 28  1  0
  3 29  1  0
  3 30  1  0
  5 31  1  0
  5 32  1  0
  6 33  1  0
  6 34  1  0
  7 35  1  0
  7 36  1  0
  7 37  1  0
 12 38  1  0
 13 39  1  0
 15 40  1  0
 22 41  1  0
 23 42  1  0
M  END
>  <loss>  (5) 
0.696479856967926

>  <score>  (5) 
-4.126249313354492

$$$$
WFMVFIYQPAXONU-UHFFFAOYSA-N
     RDKit          3D

 42 42  0  0  0  0  0  0  0  0999 V2000
  120.5307  121.2069   91.6936 C   0  0  0  0  0  0  0  0  0  0  0  0
  120.9023  122.5276   91.0363 C   0  0  0  0  0  0  0  0  0  0  0  0
  119.6931  123.3249   90.5464 C   0  0  0  0  0  0  0  0  0  0  0  0
  119.1772  122.7667   89.2666 N   0  0  0  0  0  0  0  0  0  0  0  0
  118.4131  121.4964   89.4265 C   0  0  0  0  0  0  0  0  0  0  0  0
  116.9854  121.5784   88.8877 C   0  0  0  0  0  0  0  0  0  0  0  0
  116.3801  120.1929   88.7199 C   0  0  0  0  0  0  0  0  0  0  0  0
  118.5292  123.8735   88.1399 S   0  0  0  0  0  6  0  0  0  0  0  0
  118.7329  125.2100   88.6582 O   0  0  0  0  0  0  0  0  0  0  0  0
  117.2117  123.4114   87.7559 O   0  0  0  0  0  0  0  0  0  0  0  0
  119.5863  123.6529   86.7295 C   0  0  0  0  0  0  0  0  0  0  0  0
  120.9689  123.5646   86.8909 C   0  0  0  0  0  0  0  0  0  0  0  0
  121.7887  123.4007   85.7682 C   0  0  0  0  0  0  0  0  0  0  0  0
  121.2356  123.3371   84.4860 C   0  0  0  0  0  0  0  0  0  0  0  0
  121.9875  123.1741   83.3044 N   0  0  0  0  0  0  0  0  0  0  0  0
  123.0235  122.2648   83.0584 C   0  0  0  0  0  0  0  0  0  0  0  0
  123.1005  121.1566   83.5899 O   0  0  0  0  0  0  0  0  0  0  0  0
  124.0517  122.7570   82.0036 C   0  0  0  0  0  0  0  0  0  0  0  0
  125.7167  122.3833   82.4990 Cl  0  0  0  0  0  0  0  0  0  0  0  0
  123.8793  124.5269   81.7928 Cl  0  0  0  0  0  0  0  0  0  0  0  0
  123.6753  121.9448   80.4571 Cl  0  0  0  0  0  0  0  0  0  0  0  0
  119.8442  123.4453   84.3402 C   0  0  0  0  0  0  0  0  0  0  0  0
  119.0183  123.6060   85.4558 C   0  0  0  0  0  0  0  0  0  0  0  0
  120.5625  121.3199   92.7873 H   0  0  0  0  0  0  0  0  0  0  0  0
  119.5159  120.9162   91.3844 H   0  0  0  0  0  0  0  0  0  0  0  0
  121.2450  120.4297   91.3844 H   0  0  0  0  0  0  0  0  0  0  0  0
  121.4496  123.1394   91.7686 H   0  0  0  0  0  0  0  0  0  0  0  0
  121.5131  122.2895   90.1530 H   0  0  0  0  0  0  0  0  0  0  0  0
  118.8989  123.2795   91.3062 H   0  0  0  0  0  0  0  0  0  0  0  0
  120.0017  124.3673   90.3782 H   0  0  0  0  0  0  0  0  0  0  0  0
  118.9448  120.6988   88.8870 H   0  0  0  0  0  0  0  0  0  0  0  0
  118.3433  121.2916   90.5050 H   0  0  0  0  0  0  0  0  0  0  0  0
  116.3688  122.1564   89.5918 H   0  0  0  0  0  0  0  0  0  0  0  0
  117.0123  122.0682   87.9031 H   0  0  0  0  0  0  0  0  0  0  0  0
  116.1885  119.7542   89.7103 H   0  0  0  0  0  0  0  0  0  0  0  0
  115.4341  120.2709   88.1641 H   0  0  0  0  0  0  0  0  0  0  0  0
  117.0802  119.5518   88.1641 H   0  0  0  0  0  0  0  0  0  0  0  0
  121.4129  123.6236   87.8956 H   0  0  0  0  0  0  0  0  0  0  0  0
  122.8783  123.3211   85.8962 H   0  0  0  0  0  0  0  0  0  0  0  0
  121.7443  123.8021   82.5250 H   0  0  0  0  0  0  0  0  0  0  0  0
  119.3982  123.4032   83.3356 H   0  0  0  0  0  0  0  0  0  0  0  0
  117.9290  123.6947   85.3310 H   0  0  0  0  0  0  0  0  0  0  0  0
  1  2  1  0
  2  3  1  0
  3  4  1  0
  4  5  1  0
  5  6  1  0
  6  7  1  0
  4  8  1  0
  8  9  2  0
  8 10  2  0
  8 11  1  0
 11 12  2  0
 12 13  1  0
 13 14  2  0
 14 15  1  0
 15 16  1  0
 16 17  2  0
 16 18  1  0
 18 19  1  0
 18 20  1  0
 18 21  1  0
 14 22  1  0
 22 23  2  0
 23 11  1  0
  1 24  1  0
  1 25  1  0
  1 26  1  0
  2 27  1  0
  2 28  1  0
  3 29  1  0
  3 30  1  0
  5 31  1  0
  5 32  1  0
  6 33  1  0
  6 34  1  0
  7 35  1  0
  7 36  1  0
  7 37  1  0
 12 38  1  0
 13 39  1  0
 15 40  1  0
 22 41  1  0
 23 42  1  0
M  END
>  <loss>  (6) 
0.6957993507385254

>  <score>  (6) 
-4.726117134094238

$$$$
WFMVFIYQPAXONU-UHFFFAOYSA-N
     RDKit          3D

 42 42  0  0  0  0  0  0  0  0999 V2000
  119.0387  126.8050   90.7061 C   0  0  0  0  0  0  0  0  0  0  0  0
  119.7773  125.5008   90.9730 C   0  0  0  0  0  0  0  0  0  0  0  0
  119.9916  124.6760   89.7036 C   0  0  0  0  0  0  0  0  0  0  0  0
  118.9955  123.5815   89.6043 N   0  0  0  0  0  0  0  0  0  0  0  0
  119.4527  122.2685   90.1248 C   0  0  0  0  0  0  0  0  0  0  0  0
  118.2420  121.3699   90.3683 C   0  0  0  0  0  0  0  0  0  0  0  0
  118.6539  119.9163   90.5355 C   0  0  0  0  0  0  0  0  0  0  0  0
  117.9945  123.5659   88.2257 S   0  0  0  0  0  6  0  0  0  0  0  0
  117.2634  122.3168   88.2051 O   0  0  0  0  0  0  0  0  0  0  0  0
  117.3033  124.8365   88.1530 O   0  0  0  0  0  0  0  0  0  0  0  0
  119.1613  123.5256   86.8769 C   0  0  0  0  0  0  0  0  0  0  0  0
  120.5292  123.4408   87.1397 C   0  0  0  0  0  0  0  0  0  0  0  0
  121.4409  123.3804   86.0791 C   0  0  0  0  0  0  0  0  0  0  0  0
  120.9933  123.3821   84.7556 C   0  0  0  0  0  0  0  0  0  0  0  0
  121.8411  123.3206   83.6306 N   0  0  0  0  0  0  0  0  0  0  0  0
  123.1875  122.9377   83.5845 C   0  0  0  0  0  0  0  0  0  0  0  0
  123.9461  122.9920   84.5530 O   0  0  0  0  0  0  0  0  0  0  0  0
  123.6619  122.4844   82.1767 C   0  0  0  0  0  0  0  0  0  0  0  0
  125.3935  122.0879   82.1726 Cl  0  0  0  0  0  0  0  0  0  0  0  0
  123.3367  123.8220   81.0368 Cl  0  0  0  0  0  0  0  0  0  0  0  0
  122.7214  121.0459   81.6748 Cl  0  0  0  0  0  0  0  0  0  0  0  0
  119.6138  123.4354   84.5068 C   0  0  0  0  0  0  0  0  0  0  0  0
  118.6974  123.5005   85.5607 C   0  0  0  0  0  0  0  0  0  0  0  0
  118.7712  127.2773   91.6628 H   0  0  0  0  0  0  0  0  0  0  0  0
  119.6871  127.4826   90.1313 H   0  0  0  0  0  0  0  0  0  0  0  0
  118.1241  126.5974   90.1313 H   0  0  0  0  0  0  0  0  0  0  0  0
  120.7588  125.7351   91.4108 H   0  0  0  0  0  0  0  0  0  0  0  0
  119.1595  124.9024   91.6587 H   0  0  0  0  0  0  0  0  0  0  0  0
  119.8923  125.3330   88.8270 H   0  0  0  0  0  0  0  0  0  0  0  0
  120.9970  124.2313   89.7412 H   0  0  0  0  0  0  0  0  0  0  0  0
  120.1197  121.7945   89.3897 H   0  0  0  0  0  0  0  0  0  0  0  0
  119.9960  122.4169   91.0697 H   0  0  0  0  0  0  0  0  0  0  0  0
  117.7270  121.7031   91.2814 H   0  0  0  0  0  0  0  0  0  0  0  0
  117.5764  121.4425   89.4956 H   0  0  0  0  0  0  0  0  0  0  0  0
  118.7221  119.6754   91.6067 H   0  0  0  0  0  0  0  0  0  0  0  0
  117.9046  119.2659   90.0605 H   0  0  0  0  0  0  0  0  0  0  0  0
  119.6329  119.7556   90.0605 H   0  0  0  0  0  0  0  0  0  0  0  0
  120.8905  123.4214   88.1786 H   0  0  0  0  0  0  0  0  0  0  0  0
  122.5195  123.3312   86.2896 H   0  0  0  0  0  0  0  0  0  0  0  0
  121.4177  123.5907   82.7313 H   0  0  0  0  0  0  0  0  0  0  0  0
  119.2483  123.4259   83.4694 H   0  0  0  0  0  0  0  0  0  0  0  0
  117.6175  123.5318   85.3539 H   0  0  0  0  0  0  0  0  0  0  0  0
  1  2  1  0
  2  3  1  0
  3  4  1  0
  4  5  1  0
  5  6  1  0
  6  7  1  0
  4  8  1  0
  8  9  2  0
  8 10  2  0
  8 11  1  0
 11 12  2  0
 12 13  1  0
 13 14  2  0
 14 15  1  0
 15 16  1  0
 16 17  2  0
 16 18  1  0
 18 19  1  0
 18 20  1  0
 18 21  1  0
 14 22  1  0
 22 23  2  0
 23 11  1  0
  1 24  1  0
  1 25  1  0
  1 26  1  0
  2 27  1  0
  2 28  1  0
  3 29  1  0
  3 30  1  0
  5 31  1  0
  5 32  1  0
  6 33  1  0
  6 34  1  0
  7 35  1  0
  7 36  1  0
  7 37  1  0
 12 38  1  0
 13 39  1  0
 15 40  1  0
 22 41  1  0
 23 42  1  0
M  END
>  <loss>  (7) 
0.7075836658477783

>  <score>  (7) 
-5.024569034576416

$$$$
WFMVFIYQPAXONU-UHFFFAOYSA-N
     RDKit          3D

 42 42  0  0  0  0  0  0  0  0999 V2000
  120.5222  121.3792   91.7507 C   0  0  0  0  0  0  0  0  0  0  0  0
  120.8354  122.6870   91.0395 C   0  0  0  0  0  0  0  0  0  0  0  0
  119.5929  123.4063   90.5134 C   0  0  0  0  0  0  0  0  0  0  0  0
  119.1577  122.8245   89.2143 N   0  0  0  0  0  0  0  0  0  0  0  0
  118.4628  121.5118   89.3432 C   0  0  0  0  0  0  0  0  0  0  0  0
  117.0050  121.5525   88.8862 C   0  0  0  0  0  0  0  0  0  0  0  0
  116.4108  120.1539   88.8167 C   0  0  0  0  0  0  0  0  0  0  0  0
  118.4890  123.8968   88.0664 S   0  0  0  0  0  6  0  0  0  0  0  0
  118.6564  125.2460   88.5644 O   0  0  0  0  0  0  0  0  0  0  0  0
  117.1858  123.3960   87.6826 O   0  0  0  0  0  0  0  0  0  0  0  0
  119.5596  123.6804   86.6656 C   0  0  0  0  0  0  0  0  0  0  0  0
  120.9427  123.6241   86.8366 C   0  0  0  0  0  0  0  0  0  0  0  0
  121.7731  123.4630   85.7213 C   0  0  0  0  0  0  0  0  0  0  0  0
  121.2296  123.3704   84.4367 C   0  0  0  0  0  0  0  0  0  0  0  0
  121.9924  123.2079   83.2619 N   0  0  0  0  0  0  0  0  0  0  0  0
  122.9805  122.2513   82.9992 C   0  0  0  0  0  0  0  0  0  0  0  0
  122.9328  121.0901   83.4063 O   0  0  0  0  0  0  0  0  0  0  0  0
  124.1302  122.7708   82.0933 C   0  0  0  0  0  0  0  0  0  0  0  0
  125.7203  122.4578   82.8220 Cl  0  0  0  0  0  0  0  0  0  0  0  0
  123.9311  124.5322   81.8394 Cl  0  0  0  0  0  0  0  0  0  0  0  0
  124.0021  121.9351   80.5191 Cl  0  0  0  0  0  0  0  0  0  0  0  0
  119.8372  123.4466   84.2810 C   0  0  0  0  0  0  0  0  0  0  0  0
  119.0009  123.6042   85.3893 C   0  0  0  0  0  0  0  0  0  0  0  0
  120.5597  121.5355   92.8389 H   0  0  0  0  0  0  0  0  0  0  0  0
  119.5168  121.0374   91.4637 H   0  0  0  0  0  0  0  0  0  0  0  0
  121.2638  120.6191   91.4637 H   0  0  0  0  0  0  0  0  0  0  0  0
  121.3506  123.3536   91.7468 H   0  0  0  0  0  0  0  0  0  0  0  0
  121.4605  122.4408   90.1685 H   0  0  0  0  0  0  0  0  0  0  0  0
  118.7788  123.3030   91.2459 H   0  0  0  0  0  0  0  0  0  0  0  0
  119.8372  124.4679   90.3610 H   0  0  0  0  0  0  0  0  0  0  0  0
  118.9996  120.7709   88.7325 H   0  0  0  0  0  0  0  0  0  0  0  0
  118.4625  121.2465   90.4108 H   0  0  0  0  0  0  0  0  0  0  0  0
  116.4223  122.1548   89.5988 H   0  0  0  0  0  0  0  0  0  0  0  0
  116.9675  121.9972   87.8808 H   0  0  0  0  0  0  0  0  0  0  0  0
  116.2490  119.7732   89.8359 H   0  0  0  0  0  0  0  0  0  0  0  0
  115.4502  120.1898   88.2819 H   0  0  0  0  0  0  0  0  0  0  0  0
  117.1035  119.4875   88.2819 H   0  0  0  0  0  0  0  0  0  0  0  0
  121.3789  123.7060   87.8431 H   0  0  0  0  0  0  0  0  0  0  0  0
  122.8633  123.4087   85.8569 H   0  0  0  0  0  0  0  0  0  0  0  0
  121.7985  123.8762   82.5025 H   0  0  0  0  0  0  0  0  0  0  0  0
  119.3986  123.3814   83.2743 H   0  0  0  0  0  0  0  0  0  0  0  0
  117.9108  123.6677   85.2566 H   0  0  0  0  0  0  0  0  0  0  0  0
  1  2  1  0
  2  3  1  0
  3  4  1  0
  4  5  1  0
  5  6  1  0
  6  7  1  0
  4  8  1  0
  8  9  2  0
  8 10  2  0
  8 11  1  0
 11 12  2  0
 12 13  1  0
 13 14  2  0
 14 15  1  0
 15 16  1  0
 16 17  2  0
 16 18  1  0
 18 19  1  0
 18 20  1  0
 18 21  1  0
 14 22  1  0
 22 23  2  0
 23 11  1  0
  1 24  1  0
  1 25  1  0
  1 26  1  0
  2 27  1  0
  2 28  1  0
  3 29  1  0
  3 30  1  0
  5 31  1  0
  5 32  1  0
  6 33  1  0
  6 34  1  0
  7 35  1  0
  7 36  1  0
  7 37  1  0
 12 38  1  0
 13 39  1  0
 15 40  1  0
 22 41  1  0
 23 42  1  0
M  END
>  <loss>  (8) 
0.6950185894966125

>  <score>  (8) 
-6.321142196655273

$$$$
WFMVFIYQPAXONU-UHFFFAOYSA-N
     RDKit          3D

 42 42  0  0  0  0  0  0  0  0999 V2000
  117.7472  119.3649   90.0604 C   0  0  0  0  0  0  0  0  0  0  0  0
  117.9833  120.8604   90.1950 C   0  0  0  0  0  0  0  0  0  0  0  0
  119.4048  121.2404   89.7856 C   0  0  0  0  0  0  0  0  0  0  0  0
  119.6568  122.6577   90.1500 N   0  0  0  0  0  0  0  0  0  0  0  0
  120.9943  122.9255   90.7333 C   0  0  0  0  0  0  0  0  0  0  0  0
  121.5811  121.6434   91.3232 C   0  0  0  0  0  0  0  0  0  0  0  0
  122.9424  121.8938   91.9524 C   0  0  0  0  0  0  0  0  0  0  0  0
  119.0103  123.8485   89.1152 S   0  0  0  0  0  6  0  0  0  0  0  0
  119.3751  125.1497   89.6357 O   0  0  0  0  0  0  0  0  0  0  0  0
  117.6283  123.5151   88.8423 O   0  0  0  0  0  0  0  0  0  0  0  0
  119.9275  123.6131   87.6032 C   0  0  0  0  0  0  0  0  0  0  0  0
  121.3069  123.4066   87.6560 C   0  0  0  0  0  0  0  0  0  0  0  0
  122.0280  123.2548   86.4679 C   0  0  0  0  0  0  0  0  0  0  0  0
  121.3849  123.3199   85.2229 C   0  0  0  0  0  0  0  0  0  0  0  0
  122.1930  123.1532   84.0796 N   0  0  0  0  0  0  0  0  0  0  0  0
  121.7845  122.9095   82.7622 C   0  0  0  0  0  0  0  0  0  0  0  0
  120.6421  122.5690   82.4537 O   0  0  0  0  0  0  0  0  0  0  0  0
  122.9237  123.0546   81.7164 C   0  0  0  0  0  0  0  0  0  0  0  0
  124.2847  122.0258   82.2490 Cl  0  0  0  0  0  0  0  0  0  0  0  0
  123.4635  124.7610   81.6686 Cl  0  0  0  0  0  0  0  0  0  0  0  0
  122.3842  122.5610   80.0974 Cl  0  0  0  0  0  0  0  0  0  0  0  0
  120.0080  123.5542   85.1859 C   0  0  0  0  0  0  0  0  0  0  0  0
  119.2798  123.7118   86.3711 C   0  0  0  0  0  0  0  0  0  0  0  0
  117.6759  118.9135   91.0610 H   0  0  0  0  0  0  0  0  0  0  0  0
  116.8102  119.1896   89.5115 H   0  0  0  0  0  0  0  0  0  0  0  0
  118.5845  118.9094   89.5115 H   0  0  0  0  0  0  0  0  0  0  0  0
  117.2704  121.3945   89.5498 H   0  0  0  0  0  0  0  0  0  0  0  0
  117.8411  121.1392   91.2495 H   0  0  0  0  0  0  0  0  0  0  0  0
  120.1237  120.5928   90.3089 H   0  0  0  0  0  0  0  0  0  0  0  0
  119.5228  121.1120   88.6995 H   0  0  0  0  0  0  0  0  0  0  0  0
  121.6643  123.3032   89.9468 H   0  0  0  0  0  0  0  0  0  0  0  0
  120.8930  123.6741   91.5329 H   0  0  0  0  0  0  0  0  0  0  0  0
  120.8966  121.2578   92.0931 H   0  0  0  0  0  0  0  0  0  0  0  0
  121.7051  120.9134   90.5096 H   0  0  0  0  0  0  0  0  0  0  0  0
  122.8486  121.8766   93.0483 H   0  0  0  0  0  0  0  0  0  0  0  0
  123.6443  121.1097   91.6321 H   0  0  0  0  0  0  0  0  0  0  0  0
  123.3193  122.8764   91.6321 H   0  0  0  0  0  0  0  0  0  0  0  0
  121.8233  123.3635   88.6262 H   0  0  0  0  0  0  0  0  0  0  0  0
  123.1136  123.0820   86.5100 H   0  0  0  0  0  0  0  0  0  0  0  0
  123.2095  123.2187   84.2320 H   0  0  0  0  0  0  0  0  0  0  0  0
  119.4914  123.6155   84.2167 H   0  0  0  0  0  0  0  0  0  0  0  0
  118.1991  123.9130   86.3313 H   0  0  0  0  0  0  0  0  0  0  0  0
  1  2  1  0
  2  3  1  0
  3  4  1  0
  4  5  1  0
  5  6  1  0
  6  7  1  0
  4  8  1  0
  8  9  2  0
  8 10  2  0
  8 11  1  0
 11 12  2  0
 12 13  1  0
 13 14  2  0
 14 15  1  0
 15 16  1  0
 16 17  2  0
 16 18  1  0
 18 19  1  0
 18 20  1  0
 18 21  1  0
 14 22  1  0
 22 23  2  0
 23 11  1  0
  1 24  1  0
  1 25  1  0
  1 26  1  0
  2 27  1  0
  2 28  1  0
  3 29  1  0
  3 30  1  0
  5 31  1  0
  5 32  1  0
  6 33  1  0
  6 34  1  0
  7 35  1  0
  7 36  1  0
  7 37  1  0
 12 38  1  0
 13 39  1  0
 15 40  1  0
 22 41  1  0
 23 42  1  0
M  END
>  <loss>  (9) 
0.7268854379653931

>  <score>  (9) 
-6.234996318817139

$$$$
WFMVFIYQPAXONU-UHFFFAOYSA-N
     RDKit          3D

 42 42  0  0  0  0  0  0  0  0999 V2000
  118.9738  126.5574   90.1896 C   0  0  0  0  0  0  0  0  0  0  0  0
  119.0566  125.1167   90.6714 C   0  0  0  0  0  0  0  0  0  0  0  0
  119.7719  124.1893   89.6868 C   0  0  0  0  0  0  0  0  0  0  0  0
  118.8311  123.2549   89.0422 N   0  0  0  0  0  0  0  0  0  0  0  0
  118.8238  121.8587   89.5216 C   0  0  0  0  0  0  0  0  0  0  0  0
  119.9720  121.4918   90.4549 C   0  0  0  0  0  0  0  0  0  0  0  0
  119.9596  120.0432   90.9153 C   0  0  0  0  0  0  0  0  0  0  0  0
  118.0122  123.7038   87.6365 S   0  0  0  0  0  6  0  0  0  0  0  0
  117.7039  125.1162   87.7137 O   0  0  0  0  0  0  0  0  0  0  0  0
  116.9723  122.7256   87.3914 O   0  0  0  0  0  0  0  0  0  0  0  0
  119.2241  123.5252   86.3403 C   0  0  0  0  0  0  0  0  0  0  0  0
  118.8192  123.4628   85.0061 C   0  0  0  0  0  0  0  0  0  0  0  0
  119.7785  123.3548   83.9946 C   0  0  0  0  0  0  0  0  0  0  0  0
  121.1465  123.3283   84.3012 C   0  0  0  0  0  0  0  0  0  0  0  0
  122.0402  123.2120   83.2169 N   0  0  0  0  0  0  0  0  0  0  0  0
  123.2960  122.5927   83.1963 C   0  0  0  0  0  0  0  0  0  0  0  0
  123.6604  121.7598   84.0269 O   0  0  0  0  0  0  0  0  0  0  0  0
  124.1808  123.0110   81.9902 C   0  0  0  0  0  0  0  0  0  0  0  0
  125.8574  122.4599   82.1951 Cl  0  0  0  0  0  0  0  0  0  0  0  0
  124.1571  124.7944   81.8336 Cl  0  0  0  0  0  0  0  0  0  0  0  0
  123.4728  122.2852   80.5186 Cl  0  0  0  0  0  0  0  0  0  0  0  0
  121.5396  123.4299   85.6375 C   0  0  0  0  0  0  0  0  0  0  0  0
  120.5840  123.5407   86.6549 C   0  0  0  0  0  0  0  0  0  0  0  0
  118.9351  127.2325   91.0572 H   0  0  0  0  0  0  0  0  0  0  0  0
  119.8600  126.7922   89.5816 H   0  0  0  0  0  0  0  0  0  0  0  0
  118.0666  126.6892   89.5816 H   0  0  0  0  0  0  0  0  0  0  0  0
  119.6016  125.0988   91.6268 H   0  0  0  0  0  0  0  0  0  0  0  0
  118.0254  124.7482   90.7756 H   0  0  0  0  0  0  0  0  0  0  0  0
  120.2581  124.7988   88.9108 H   0  0  0  0  0  0  0  0  0  0  0  0
  120.5144  123.6004   90.2452 H   0  0  0  0  0  0  0  0  0  0  0  0
  117.8794  121.6874   90.0588 H   0  0  0  0  0  0  0  0  0  0  0  0
  118.9395  121.2266   88.6288 H   0  0  0  0  0  0  0  0  0  0  0  0
  120.9190  121.6784   89.9274 H   0  0  0  0  0  0  0  0  0  0  0  0
  119.8581  122.1119   91.3564 H   0  0  0  0  0  0  0  0  0  0  0  0
  119.9593  120.0079   92.0148 H   0  0  0  0  0  0  0  0  0  0  0  0
  119.0572  119.5444   90.5322 H   0  0  0  0  0  0  0  0  0  0  0  0
  120.8534  119.5291   90.5322 H   0  0  0  0  0  0  0  0  0  0  0  0
  117.7497  123.4985   84.7514 H   0  0  0  0  0  0  0  0  0  0  0  0
  119.4559  123.2899   82.9449 H   0  0  0  0  0  0  0  0  0  0  0  0
  121.7311  123.6351   82.3301 H   0  0  0  0  0  0  0  0  0  0  0  0
  122.6095  123.4229   85.8930 H   0  0  0  0  0  0  0  0  0  0  0  0
  120.9050  123.6399   87.7023 H   0  0  0  0  0  0  0  0  0  0  0  0
  1  2  1  0
  2  3  1  0
  3  4  1  0
  4  5  1  0
  5  6  1  0
  6  7  1  0
  4  8  1  0
  8  9  2  0
  8 10  2  0
  8 11  1  0
 11 12  2  0
 12 13  1  0
 13 14  2  0
 14 15  1  0
 15 16  1  0
 16 17  2  0
 16 18  1  0
 18 19  1  0
 18 20  1  0
 18 21  1  0
 14 22  1  0
 22 23  2  0
 23 11  1  0
  1 24  1  0
  1 25  1  0
  1 26  1  0
  2 27  1  0
  2 28  1  0
  3 29  1  0
  3 30  1  0
  5 31  1  0
  5 32  1  0
  6 33  1  0
  6 34  1  0
  7 35  1  0
  7 36  1  0
  7 37  1  0
 12 38  1  0
 13 39  1  0
 15 40  1  0
 22 41  1  0
 23 42  1  0
M  END
>  <loss>  (10) 
0.6787618398666382

>  <score>  (10) 
-6.846795558929443

$$$$
WFMVFIYQPAXONU-UHFFFAOYSA-N
     RDKit          3D

 42 42  0  0  0  0  0  0  0  0999 V2000
  117.0912  119.7975   89.8112 C   0  0  0  0  0  0  0  0  0  0  0  0
  117.6528  121.1509   90.2150 C   0  0  0  0  0  0  0  0  0  0  0  0
  119.1414  121.2573   89.8902 C   0  0  0  0  0  0  0  0  0  0  0  0
  119.6223  122.6183   90.2387 N   0  0  0  0  0  0  0  0  0  0  0  0
  121.0278  122.6839   90.7090 C   0  0  0  0  0  0  0  0  0  0  0  0
  121.3329  121.5045   91.6322 C   0  0  0  0  0  0  0  0  0  0  0  0
  122.8301  121.3244   91.8270 C   0  0  0  0  0  0  0  0  0  0  0  0
  119.0696  123.9057   89.2672 S   0  0  0  0  0  6  0  0  0  0  0  0
  119.5409  125.1467   89.8459 O   0  0  0  0  0  0  0  0  0  0  0  0
  117.6639  123.6983   88.9906 O   0  0  0  0  0  0  0  0  0  0  0  0
  119.9577  123.6701   87.7381 C   0  0  0  0  0  0  0  0  0  0  0  0
  121.3397  123.4762   87.7636 C   0  0  0  0  0  0  0  0  0  0  0  0
  122.0377  123.3242   86.5618 C   0  0  0  0  0  0  0  0  0  0  0  0
  121.3686  123.3767   85.3299 C   0  0  0  0  0  0  0  0  0  0  0  0
  122.1546  123.2108   84.1711 N   0  0  0  0  0  0  0  0  0  0  0  0
  121.7230  122.9303   82.8685 C   0  0  0  0  0  0  0  0  0  0  0  0
  120.5420  122.7657   82.5613 O   0  0  0  0  0  0  0  0  0  0  0  0
  122.8803  122.7895   81.8421 C   0  0  0  0  0  0  0  0  0  0  0  0
  124.0450  121.6019   82.4959 Cl  0  0  0  0  0  0  0  0  0  0  0  0
  123.6982  124.3715   81.6583 Cl  0  0  0  0  0  0  0  0  0  0  0  0
  122.2811  122.2477   80.2599 Cl  0  0  0  0  0  0  0  0  0  0  0  0
  119.9892  123.5985   85.3200 C   0  0  0  0  0  0  0  0  0  0  0  0
  119.2840  123.7561   86.5190 C   0  0  0  0  0  0  0  0  0  0  0  0
  116.8501  119.2165   90.7136 H   0  0  0  0  0  0  0  0  0  0  0  0
  116.1789  119.9425   89.2138 H   0  0  0  0  0  0  0  0  0  0  0  0
  117.8380  119.2540   89.2138 H   0  0  0  0  0  0  0  0  0  0  0  0
  117.1110  121.9394   89.6721 H   0  0  0  0  0  0  0  0  0  0  0  0
  117.5269  121.2671   91.3016 H   0  0  0  0  0  0  0  0  0  0  0  0
  119.6992  120.5097   90.4732 H   0  0  0  0  0  0  0  0  0  0  0  0
  119.2990  121.0737   88.8172 H   0  0  0  0  0  0  0  0  0  0  0  0
  121.7030  122.6498   89.8413 H   0  0  0  0  0  0  0  0  0  0  0  0
  121.1762  123.6215   91.2647 H   0  0  0  0  0  0  0  0  0  0  0  0
  120.8640  121.6854   92.6106 H   0  0  0  0  0  0  0  0  0  0  0  0
  120.9318  120.5905   91.1698 H   0  0  0  0  0  0  0  0  0  0  0  0
  123.0592  121.2969   92.9025 H   0  0  0  0  0  0  0  0  0  0  0  0
  123.1498  120.3814   91.3597 H   0  0  0  0  0  0  0  0  0  0  0  0
  123.3643  122.1648   91.3597 H   0  0  0  0  0  0  0  0  0  0  0  0
  121.8763  123.4432   88.7232 H   0  0  0  0  0  0  0  0  0  0  0  0
  123.1254  123.1614   86.5825 H   0  0  0  0  0  0  0  0  0  0  0  0
  123.1721  123.3079   84.2983 H   0  0  0  0  0  0  0  0  0  0  0  0
  119.4524  123.6497   84.3612 H   0  0  0  0  0  0  0  0  0  0  0  0
  118.2010  123.9475   86.5003 H   0  0  0  0  0  0  0  0  0  0  0  0
  1  2  1  0
  2  3  1  0
  3  4  1  0
  4  5  1  0
  5  6  1  0
  6  7  1  0
  4  8  1  0
  8  9  2  0
  8 10  2  0
  8 11  1  0
 11 12  2  0
 12 13  1  0
 13 14  2  0
 14 15  1  0
 15 16  1  0
 16 17  2  0
 16 18  1  0
 18 19  1  0
 18 20  1  0
 18 21  1  0
 14 22  1  0
 22 23  2  0
 23 11  1  0
  1 24  1  0
  1 25  1  0
  1 26  1  0
  2 27  1  0
  2 28  1  0
  3 29  1  0
  3 30  1  0
  5 31  1  0
  5 32  1  0
  6 33  1  0
  6 34  1  0
  7 35  1  0
  7 36  1  0
  7 37  1  0
 12 38  1  0
 13 39  1  0
 15 40  1  0
 22 41  1  0
 23 42  1  0
M  END
>  <loss>  (11) 
0.7168036103248596

>  <score>  (11) 
-6.762924671173096

$$$$
WFMVFIYQPAXONU-UHFFFAOYSA-N
     RDKit          3D

 42 42  0  0  0  0  0  0  0  0999 V2000
  118.5012  126.8926   90.5617 C   0  0  0  0  0  0  0  0  0  0  0  0
  119.5389  125.8284   90.8906 C   0  0  0  0  0  0  0  0  0  0  0  0
  119.9090  124.9733   89.6784 C   0  0  0  0  0  0  0  0  0  0  0  0
  119.2198  123.6607   89.7213 N   0  0  0  0  0  0  0  0  0  0  0  0
  120.0096  122.5572   90.3233 C   0  0  0  0  0  0  0  0  0  0  0  0
  119.0892  121.3730   90.6114 C   0  0  0  0  0  0  0  0  0  0  0  0
  119.7914  120.3136   91.4452 C   0  0  0  0  0  0  0  0  0  0  0  0
  118.2146  123.2684   88.4028 S   0  0  0  0  0  6  0  0  0  0  0  0
  117.7956  121.8898   88.5410 O   0  0  0  0  0  0  0  0  0  0  0  0
  117.2438  124.3308   88.2409 O   0  0  0  0  0  0  0  0  0  0  0  0
  119.3230  123.3536   87.0076 C   0  0  0  0  0  0  0  0  0  0  0  0
  120.7029  123.2979   87.2081 C   0  0  0  0  0  0  0  0  0  0  0  0
  121.5696  123.3361   86.1094 C   0  0  0  0  0  0  0  0  0  0  0  0
  121.0656  123.4077   84.8082 C   0  0  0  0  0  0  0  0  0  0  0  0
  121.8657  123.4468   83.6479 N   0  0  0  0  0  0  0  0  0  0  0  0
  123.0381  122.7277   83.3834 C   0  0  0  0  0  0  0  0  0  0  0  0
  123.7322  122.2082   84.2578 O   0  0  0  0  0  0  0  0  0  0  0  0
  123.4219  122.6871   81.8788 C   0  0  0  0  0  0  0  0  0  0  0  0
  125.1671  122.4364   81.6616 Cl  0  0  0  0  0  0  0  0  0  0  0  0
  122.9309  124.2436   81.1505 Cl  0  0  0  0  0  0  0  0  0  0  0  0
  122.5264  121.3585   81.0798 Cl  0  0  0  0  0  0  0  0  0  0  0  0
  119.6757  123.4308   84.6202 C   0  0  0  0  0  0  0  0  0  0  0  0
  118.8039  123.3975   85.7127 C   0  0  0  0  0  0  0  0  0  0  0  0
  118.0948  127.3094   91.4950 H   0  0  0  0  0  0  0  0  0  0  0  0
  118.9725  127.6958   89.9762 H   0  0  0  0  0  0  0  0  0  0  0  0
  117.6865  126.4417   89.9762 H   0  0  0  0  0  0  0  0  0  0  0  0
  120.4475  126.3251   91.2619 H   0  0  0  0  0  0  0  0  0  0  0  0
  119.1029  125.1609   91.6485 H   0  0  0  0  0  0  0  0  0  0  0  0
  119.6146  125.5040   88.7610 H   0  0  0  0  0  0  0  0  0  0  0  0
  120.9949  124.7986   89.6921 H   0  0  0  0  0  0  0  0  0  0  0  0
  120.7990  122.2465   89.6230 H   0  0  0  0  0  0  0  0  0  0  0  0
  120.4681  122.9029   91.2615 H   0  0  0  0  0  0  0  0  0  0  0  0
  118.2055  121.7318   91.1595 H   0  0  0  0  0  0  0  0  0  0  0  0
  118.7971  120.9206   89.6523 H   0  0  0  0  0  0  0  0  0  0  0  0
  119.6465  120.5322   92.5135 H   0  0  0  0  0  0  0  0  0  0  0  0
  119.3693  119.3248   91.2127 H   0  0  0  0  0  0  0  0  0  0  0  0
  120.8665  120.3172   91.2127 H   0  0  0  0  0  0  0  0  0  0  0  0
  121.1089  123.2240   88.2278 H   0  0  0  0  0  0  0  0  0  0  0  0
  122.6572  123.3095   86.2719 H   0  0  0  0  0  0  0  0  0  0  0  0
  121.5487  124.0830   82.9024 H   0  0  0  0  0  0  0  0  0  0  0  0
  119.2664  123.4756   83.6002 H   0  0  0  0  0  0  0  0  0  0  0  0
  117.7157  123.4059   85.5528 H   0  0  0  0  0  0  0  0  0  0  0  0
  1  2  1  0
  2  3  1  0
  3  4  1  0
  4  5  1  0
  5  6  1  0
  6  7  1  0
  4  8  1  0
  8  9  2  0
  8 10  2  0
  8 11  1  0
 11 12  2  0
 12 13  1  0
 13 14  2  0
 14 15  1  0
 15 16  1  0
 16 17  2  0
 16 18  1  0
 18 19  1  0
 18 20  1  0
 18 21  1  0
 14 22  1  0
 22 23  2  0
 23 11  1  0
  1 24  1  0
  1 25  1  0
  1 26  1  0
  2 27  1  0
  2 28  1  0
  3 29  1  0
  3 30  1  0
  5 31  1  0
  5 32  1  0
  6 33  1  0
  6 34  1  0
  7 35  1  0
  7 36  1  0
  7 37  1  0
 12 38  1  0
 13 39  1  0
 15 40  1  0
 22 41  1  0
 23 42  1  0
M  END
>  <loss>  (12) 
0.7058465480804443

>  <score>  (12) 
-7.014326095581055

$$$$
WFMVFIYQPAXONU-UHFFFAOYSA-N
     RDKit          3D

 42 42  0  0  0  0  0  0  0  0999 V2000
  117.4618  119.4334   89.3473 C   0  0  0  0  0  0  0  0  0  0  0  0
  117.4293  120.9521   89.2955 C   0  0  0  0  0  0  0  0  0  0  0  0
  118.8310  121.5354   89.1295 C   0  0  0  0  0  0  0  0  0  0  0  0
  118.7662  123.0124   89.2686 N   0  0  0  0  0  0  0  0  0  0  0  0
  119.8742  123.6167   90.0484 C   0  0  0  0  0  0  0  0  0  0  0  0
  120.4385  122.6008   91.0413 C   0  0  0  0  0  0  0  0  0  0  0  0
  121.5151  123.2203   91.9183 C   0  0  0  0  0  0  0  0  0  0  0  0
  118.1965  123.8912   87.9233 S   0  0  0  0  0  6  0  0  0  0  0  0
  118.1914  125.2977   88.2681 O   0  0  0  0  0  0  0  0  0  0  0  0
  117.0028  123.2411   87.4253 O   0  0  0  0  0  0  0  0  0  0  0  0
  119.4824  123.6539   86.7098 C   0  0  0  0  0  0  0  0  0  0  0  0
  120.8125  123.5558   87.1215 C   0  0  0  0  0  0  0  0  0  0  0  0
  121.8213  123.4024   86.1659 C   0  0  0  0  0  0  0  0  0  0  0  0
  121.5152  123.3584   84.7976 C   0  0  0  0  0  0  0  0  0  0  0  0
  122.5974  123.1989   83.9080 N   0  0  0  0  0  0  0  0  0  0  0  0
  122.5879  122.6211   82.6322 C   0  0  0  0  0  0  0  0  0  0  0  0
  121.5965  122.0900   82.1308 O   0  0  0  0  0  0  0  0  0  0  0  0
  123.9661  122.6598   81.9169 C   0  0  0  0  0  0  0  0  0  0  0  0
  125.0855  121.6133   82.8367 Cl  0  0  0  0  0  0  0  0  0  0  0  0
  124.5886  124.3385   81.9317 Cl  0  0  0  0  0  0  0  0  0  0  0  0
  123.8414  122.0916   80.2384 Cl  0  0  0  0  0  0  0  0  0  0  0  0
  120.1818  123.4851   84.3999 C   0  0  0  0  0  0  0  0  0  0  0  0
  119.1665  123.6435   85.3506 C   0  0  0  0  0  0  0  0  0  0  0  0
  117.4689  119.1023   90.3963 H   0  0  0  0  0  0  0  0  0  0  0  0
  116.5721  119.0302   88.8415 H   0  0  0  0  0  0  0  0  0  0  0  0
  118.3679  119.0686   88.8415 H   0  0  0  0  0  0  0  0  0  0  0  0
  116.8075  121.2678   88.4448 H   0  0  0  0  0  0  0  0  0  0  0  0
  117.0113  121.3214   90.2436 H   0  0  0  0  0  0  0  0  0  0  0  0
  119.4952  121.1221   89.9029 H   0  0  0  0  0  0  0  0  0  0  0  0
  119.2237  121.2752   88.1355 H   0  0  0  0  0  0  0  0  0  0  0  0
  120.6719  123.9334   89.3603 H   0  0  0  0  0  0  0  0  0  0  0  0
  119.4896  124.4848   90.6038 H   0  0  0  0  0  0  0  0  0  0  0  0
  119.6222  122.2349   91.6815 H   0  0  0  0  0  0  0  0  0  0  0  0
  120.8891  121.7744   90.4722 H   0  0  0  0  0  0  0  0  0  0  0  0
  121.2562  123.0713   92.9770 H   0  0  0  0  0  0  0  0  0  0  0  0
  122.4819  122.7403   91.7062 H   0  0  0  0  0  0  0  0  0  0  0  0
  121.5860  124.2973   91.7062 H   0  0  0  0  0  0  0  0  0  0  0  0
  121.0653  123.5990   88.1912 H   0  0  0  0  0  0  0  0  0  0  0  0
  122.8685  123.3152   86.4911 H   0  0  0  0  0  0  0  0  0  0  0  0
  123.5077  123.5509   84.2371 H   0  0  0  0  0  0  0  0  0  0  0  0
  119.9275  123.4601   83.3300 H   0  0  0  0  0  0  0  0  0  0  0  0
  118.1217  123.7597   85.0268 H   0  0  0  0  0  0  0  0  0  0  0  0
  1  2  1  0
  2  3  1  0
  3  4  1  0
  4  5  1  0
  5  6  1  0
  6  7  1  0
  4  8  1  0
  8  9  2  0
  8 10  2  0
  8 11  1  0
 11 12  2  0
 12 13  1  0
 13 14  2  0
 14 15  1  0
 15 16  1  0
 16 17  2  0
 16 18  1  0
 18 19  1  0
 18 20  1  0
 18 21  1  0
 14 22  1  0
 22 23  2  0
 23 11  1  0
  1 24  1  0
  1 25  1  0
  1 26  1  0
  2 27  1  0
  2 28  1  0
  3 29  1  0
  3 30  1  0
  5 31  1  0
  5 32  1  0
  6 33  1  0
  6 34  1  0
  7 35  1  0
  7 36  1  0
  7 37  1  0
 12 38  1  0
 13 39  1  0
 15 40  1  0
 22 41  1  0
 23 42  1  0
M  END
>  <loss>  (13) 
0.6939313411712646

>  <score>  (13) 
-8.577428817749023

$$$$
WFMVFIYQPAXONU-UHFFFAOYSA-N
     RDKit          3D

 42 42  0  0  0  0  0  0  0  0999 V2000
  121.9350  123.7982   92.2138 C   0  0  0  0  0  0  0  0  0  0  0  0
  121.3768  122.4410   91.8121 C   0  0  0  0  0  0  0  0  0  0  0  0
  121.0566  122.3360   90.3196 C   0  0  0  0  0  0  0  0  0  0  0  0
  119.6677  122.7397   90.0342 N   0  0  0  0  0  0  0  0  0  0  0  0
  118.6012  121.7627   90.3297 C   0  0  0  0  0  0  0  0  0  0  0  0
  118.6994  120.4496   89.5616 C   0  0  0  0  0  0  0  0  0  0  0  0
  118.3441  119.2212   90.3833 C   0  0  0  0  0  0  0  0  0  0  0  0
  119.3519  124.1420   89.1498 S   0  0  0  0  0  6  0  0  0  0  0  0
  120.1789  125.2107   89.6693 O   0  0  0  0  0  0  0  0  0  0  0  0
  117.9150  124.2934   89.0469 O   0  0  0  0  0  0  0  0  0  0  0  0
  119.9656  123.7830   87.5142 C   0  0  0  0  0  0  0  0  0  0  0  0
  119.0851  123.7221   86.4330 C   0  0  0  0  0  0  0  0  0  0  0  0
  119.5793  123.4715   85.1492 C   0  0  0  0  0  0  0  0  0  0  0  0
  120.9534  123.2996   84.9290 C   0  0  0  0  0  0  0  0  0  0  0  0
  121.3590  123.0459   83.6028 N   0  0  0  0  0  0  0  0  0  0  0  0
  122.5803  122.5240   83.1588 C   0  0  0  0  0  0  0  0  0  0  0  0
  123.2285  121.6805   83.7793 O   0  0  0  0  0  0  0  0  0  0  0  0
  123.0268  123.0666   81.7737 C   0  0  0  0  0  0  0  0  0  0  0  0
  124.7954  123.0378   81.6062 Cl  0  0  0  0  0  0  0  0  0  0  0  0
  122.4398  124.7473   81.5830 Cl  0  0  0  0  0  0  0  0  0  0  0  0
  122.2758  122.0389   80.5192 Cl  0  0  0  0  0  0  0  0  0  0  0  0
  121.8275  123.4009   86.0135 C   0  0  0  0  0  0  0  0  0  0  0  0
  121.3391  123.6540   87.3011 C   0  0  0  0  0  0  0  0  0  0  0  0
  121.9654  123.8720   93.3109 H   0  0  0  0  0  0  0  0  0  0  0  0
  122.9522  123.9102   91.8105 H   0  0  0  0  0  0  0  0  0  0  0  0
  121.2910  124.5935   91.8105 H   0  0  0  0  0  0  0  0  0  0  0  0
  122.1190  121.6695   92.0651 H   0  0  0  0  0  0  0  0  0  0  0  0
  120.4322  122.3026   92.3585 H   0  0  0  0  0  0  0  0  0  0  0  0
  121.7411  122.9909   89.7604 H   0  0  0  0  0  0  0  0  0  0  0  0
  121.1804  121.2867   90.0135 H   0  0  0  0  0  0  0  0  0  0  0  0
  118.6376  121.5327   91.4048 H   0  0  0  0  0  0  0  0  0  0  0  0
  117.6578  122.2330   90.0153 H   0  0  0  0  0  0  0  0  0  0  0  0
  118.0145  120.5002   88.7023 H   0  0  0  0  0  0  0  0  0  0  0  0
  119.7513  120.3363   89.2607 H   0  0  0  0  0  0  0  0  0  0  0  0
  118.4142  119.4634   91.4540 H   0  0  0  0  0  0  0  0  0  0  0  0
  117.3178  118.9050   90.1453 H   0  0  0  0  0  0  0  0  0  0  0  0
  119.0433  118.4060   90.1453 H   0  0  0  0  0  0  0  0  0  0  0  0
  118.0066  123.8707   86.5902 H   0  0  0  0  0  0  0  0  0  0  0  0
  118.8814  123.4084   84.3014 H   0  0  0  0  0  0  0  0  0  0  0  0
  120.6720  123.2724   82.8696 H   0  0  0  0  0  0  0  0  0  0  0  0
  122.9093  123.2806   85.8548 H   0  0  0  0  0  0  0  0  0  0  0  0
  122.0379  123.7513   88.1450 H   0  0  0  0  0  0  0  0  0  0  0  0
  1  2  1  0
  2  3  1  0
  3  4  1  0
  4  5  1  0
  5  6  1  0
  6  7  1  0
  4  8  1  0
  8  9  2  0
  8 10  2  0
  8 11  1  0
 11 12  2  0
 12 13  1  0
 13 14  2  0
 14 15  1  0
 15 16  1  0
 16 17  2  0
 16 18  1  0
 18 19  1  0
 18 20  1  0
 18 21  1  0
 14 22  1  0
 22 23  2  0
 23 11  1  0
  1 24  1  0
  1 25  1  0
  1 26  1  0
  2 27  1  0
  2 28  1  0
  3 29  1  0
  3 30  1  0
  5 31  1  0
  5 32  1  0
  6 33  1  0
  6 34  1  0
  7 35  1  0
  7 36  1  0
  7 37  1  0
 12 38  1  0
 13 39  1  0
 15 40  1  0
 22 41  1  0
 23 42  1  0
M  END
>  <loss>  (14) 
0.7159208059310913

>  <score>  (14) 
-8.662975311279297

$$$$
WFMVFIYQPAXONU-UHFFFAOYSA-N
     RDKit          3D

 42 42  0  0  0  0  0  0  0  0999 V2000
  117.1012  119.6192   89.1155 C   0  0  0  0  0  0  0  0  0  0  0  0
  117.2694  121.1141   88.8911 C   0  0  0  0  0  0  0  0  0  0  0  0
  118.7302  121.5603   88.8304 C   0  0  0  0  0  0  0  0  0  0  0  0
  118.8563  123.0218   88.9625 N   0  0  0  0  0  0  0  0  0  0  0  0
  119.6539  123.6225   90.0533 C   0  0  0  0  0  0  0  0  0  0  0  0
  120.4573  122.6435   90.9085 C   0  0  0  0  0  0  0  0  0  0  0  0
  121.3827  123.3149   91.9104 C   0  0  0  0  0  0  0  0  0  0  0  0
  118.2754  124.0166   87.7218 S   0  0  0  0  0  6  0  0  0  0  0  0
  118.4291  125.3965   88.1316 O   0  0  0  0  0  0  0  0  0  0  0  0
  116.9970  123.5072   87.2714 O   0  0  0  0  0  0  0  0  0  0  0  0
  119.4428  123.7157   86.4108 C   0  0  0  0  0  0  0  0  0  0  0  0
  119.0007  123.6660   85.0883 C   0  0  0  0  0  0  0  0  0  0  0  0
  119.9244  123.4557   84.0604 C   0  0  0  0  0  0  0  0  0  0  0  0
  121.2910  123.3060   84.3408 C   0  0  0  0  0  0  0  0  0  0  0  0
  122.1465  123.0933   83.2405 N   0  0  0  0  0  0  0  0  0  0  0  0
  123.2603  122.2477   83.1638 C   0  0  0  0  0  0  0  0  0  0  0  0
  123.3866  121.2218   83.8331 O   0  0  0  0  0  0  0  0  0  0  0  0
  124.3117  122.6914   82.1102 C   0  0  0  0  0  0  0  0  0  0  0  0
  125.9590  122.6298   82.7726 Cl  0  0  0  0  0  0  0  0  0  0  0  0
  124.1735  121.5923   80.7078 Cl  0  0  0  0  0  0  0  0  0  0  0  0
  123.9462  124.3629   81.5822 Cl  0  0  0  0  0  0  0  0  0  0  0  0
  121.7206  123.3834   85.6681 C   0  0  0  0  0  0  0  0  0  0  0  0
  120.8022  123.5969   86.7027 C   0  0  0  0  0  0  0  0  0  0  0  0
  117.0777  119.4109   90.1953 H   0  0  0  0  0  0  0  0  0  0  0  0
  116.1596  119.2833   88.6567 H   0  0  0  0  0  0  0  0  0  0  0  0
  117.9446  119.0824   88.6567 H   0  0  0  0  0  0  0  0  0  0  0  0
  116.7841  121.3805   87.9406 H   0  0  0  0  0  0  0  0  0  0  0  0
  116.8104  121.6243   89.7508 H   0  0  0  0  0  0  0  0  0  0  0  0
  119.2850  121.0786   89.6491 H   0  0  0  0  0  0  0  0  0  0  0  0
  119.1396  121.2664   87.8526 H   0  0  0  0  0  0  0  0  0  0  0  0
  120.3606  124.3343   89.6017 H   0  0  0  0  0  0  0  0  0  0  0  0
  118.9254  124.0856   90.7350 H   0  0  0  0  0  0  0  0  0  0  0  0
  119.7511  122.0073   91.4621 H   0  0  0  0  0  0  0  0  0  0  0  0
  121.0951  122.0687   90.2210 H   0  0  0  0  0  0  0  0  0  0  0  0
  121.0526  123.0754   92.9320 H   0  0  0  0  0  0  0  0  0  0  0  0
  122.4099  122.9505   91.7621 H   0  0  0  0  0  0  0  0  0  0  0  0
  121.3551  124.4045   91.7621 H   0  0  0  0  0  0  0  0  0  0  0  0
  117.9328  123.7913   84.8562 H   0  0  0  0  0  0  0  0  0  0  0  0
  119.5755  123.4070   83.0184 H   0  0  0  0  0  0  0  0  0  0  0  0
  121.9249  123.6258   82.3872 H   0  0  0  0  0  0  0  0  0  0  0  0
  122.7901  123.2757   85.9020 H   0  0  0  0  0  0  0  0  0  0  0  0
  121.1512  123.6708   87.7432 H   0  0  0  0  0  0  0  0  0  0  0  0
  1  2  1  0
  2  3  1  0
  3  4  1  0
  4  5  1  0
  5  6  1  0
  6  7  1  0
  4  8  1  0
  8  9  2  0
  8 10  2  0
  8 11  1  0
 11 12  2  0
 12 13  1  0
 13 14  2  0
 14 15  1  0
 15 16  1  0
 16 17  2  0
 16 18  1  0
 18 19  1  0
 18 20  1  0
 18 21  1  0
 14 22  1  0
 22 23  2  0
 23 11  1  0
  1 24  1  0
  1 25  1  0
  1 26  1  0
  2 27  1  0
  2 28  1  0
  3 29  1  0
  3 30  1  0
  5 31  1  0
  5 32  1  0
  6 33  1  0
  6 34  1  0
  7 35  1  0
  7 36  1  0
  7 37  1  0
 12 38  1  0
 13 39  1  0
 15 40  1  0
 22 41  1  0
 23 42  1  0
M  END
>  <loss>  (15) 
0.6903843283653259

>  <score>  (15) 
-9.391942977905273

$$$$
WFMVFIYQPAXONU-UHFFFAOYSA-N
     RDKit          3D

 42 42  0  0  0  0  0  0  0  0999 V2000
  119.4532  126.9708   90.2177 C   0  0  0  0  0  0  0  0  0  0  0  0
  118.6460  125.8410   89.5959 C   0  0  0  0  0  0  0  0  0  0  0  0
  119.4808  124.5940   89.2971 C   0  0  0  0  0  0  0  0  0  0  0  0
  118.6431  123.4892   88.7956 N   0  0  0  0  0  0  0  0  0  0  0  0
  118.6824  122.2145   89.5392 C   0  0  0  0  0  0  0  0  0  0  0  0
  119.7820  122.1153   90.5903 C   0  0  0  0  0  0  0  0  0  0  0  0
  120.0033  120.7105   91.1271 C   0  0  0  0  0  0  0  0  0  0  0  0
  117.9007  123.6002   87.2841 S   0  0  0  0  0  6  0  0  0  0  0  0
  117.3547  124.9328   87.1354 O   0  0  0  0  0  0  0  0  0  0  0  0
  117.0678  122.4286   87.1062 O   0  0  0  0  0  0  0  0  0  0  0  0
  119.2454  123.4765   86.1189 C   0  0  0  0  0  0  0  0  0  0  0  0
  118.9905  123.5217   84.7474 C   0  0  0  0  0  0  0  0  0  0  0  0
  120.0539  123.4560   83.8419 C   0  0  0  0  0  0  0  0  0  0  0  0
  121.3781  123.3651   84.2938 C   0  0  0  0  0  0  0  0  0  0  0  0
  122.3843  123.2984   83.3084 N   0  0  0  0  0  0  0  0  0  0  0  0
  123.2303  122.2230   83.0103 C   0  0  0  0  0  0  0  0  0  0  0  0
  122.9846  121.0556   83.3162 O   0  0  0  0  0  0  0  0  0  0  0  0
  124.4947  122.6259   82.2033 C   0  0  0  0  0  0  0  0  0  0  0  0
  125.9762  122.3697   83.1503 Cl  0  0  0  0  0  0  0  0  0  0  0  0
  124.3746  124.3523   81.7445 Cl  0  0  0  0  0  0  0  0  0  0  0  0
  124.5349  121.6282   80.7212 Cl  0  0  0  0  0  0  0  0  0  0  0  0
  121.6219  123.3593   85.6690 C   0  0  0  0  0  0  0  0  0  0  0  0
  120.5616  123.4272   86.5809 C   0  0  0  0  0  0  0  0  0  0  0  0
  119.4013  126.8982   91.3141 H   0  0  0  0  0  0  0  0  0  0  0  0
  120.5017  126.8934   89.8943 H   0  0  0  0  0  0  0  0  0  0  0  0
  119.0401  127.9377   89.8943 H   0  0  0  0  0  0  0  0  0  0  0  0
  117.8405  125.5634   90.2917 H   0  0  0  0  0  0  0  0  0  0  0  0
  118.2557  126.2095   88.6358 H   0  0  0  0  0  0  0  0  0  0  0  0
  120.2358  124.8433   88.5370 H   0  0  0  0  0  0  0  0  0  0  0  0
  119.9589  124.2671   90.2322 H   0  0  0  0  0  0  0  0  0  0  0  0
  117.7143  122.0845   90.0449 H   0  0  0  0  0  0  0  0  0  0  0  0
  118.8959  121.4319   88.7963 H   0  0  0  0  0  0  0  0  0  0  0  0
  120.7228  122.4651   90.1401 H   0  0  0  0  0  0  0  0  0  0  0  0
  119.4628  122.7335   91.4423 H   0  0  0  0  0  0  0  0  0  0  0  0
  119.9997  120.7335   92.2269 H   0  0  0  0  0  0  0  0  0  0  0  0
  119.1980  120.0510   90.7715 H   0  0  0  0  0  0  0  0  0  0  0  0
  120.9724  120.3305   90.7715 H   0  0  0  0  0  0  0  0  0  0  0  0
  117.9572  123.6086   84.3804 H   0  0  0  0  0  0  0  0  0  0  0  0
  119.8491  123.4759   82.7613 H   0  0  0  0  0  0  0  0  0  0  0  0
  122.5131  124.1456   82.7370 H   0  0  0  0  0  0  0  0  0  0  0  0
  122.6562  123.3009   86.0389 H   0  0  0  0  0  0  0  0  0  0  0  0
  120.7660  123.4418   87.6617 H   0  0  0  0  0  0  0  0  0  0  0  0
  1  2  1  0
  2  3  1  0
  3  4  1  0
  4  5  1  0
  5  6  1  0
  6  7  1  0
  4  8  1  0
  8  9  2  0
  8 10  2  0
  8 11  1  0
 11 12  2  0
 12 13  1  0
 13 14  2  0
 14 15  1  0
 15 16  1  0
 16 17  2  0
 16 18  1  0
 18 19  1  0
 18 20  1  0
 18 21  1  0
 14 22  1  0
 22 23  2  0
 23 11  1  0
  1 24  1  0
  1 25  1  0
  1 26  1  0
  2 27  1  0
  2 28  1  0
  3 29  1  0
  3 30  1  0
  5 31  1  0
  5 32  1  0
  6 33  1  0
  6 34  1  0
  7 35  1  0
  7 36  1  0
  7 37  1  0
 12 38  1  0
 13 39  1  0
 15 40  1  0
 22 41  1  0
 23 42  1  0
M  END
>  <loss>  (16) 
0.6624521613121033

>  <score>  (16) 
-10.949220657348633

$$$$
WFMVFIYQPAXONU-UHFFFAOYSA-N
     RDKit          3D

 42 42  0  0  0  0  0  0  0  0999 V2000
  119.1989  126.4941   90.1960 C   0  0  0  0  0  0  0  0  0  0  0  0
  119.3077  125.0907   90.7733 C   0  0  0  0  0  0  0  0  0  0  0  0
  119.9596  124.0911   89.8155 C   0  0  0  0  0  0  0  0  0  0  0  0
  118.9514  123.2636   89.1281 N   0  0  0  0  0  0  0  0  0  0  0  0
  118.8360  121.8507   89.5399 C   0  0  0  0  0  0  0  0  0  0  0  0
  120.1134  121.2368   90.1014 C   0  0  0  0  0  0  0  0  0  0  0  0
  119.8802  120.0427   91.0127 C   0  0  0  0  0  0  0  0  0  0  0  0
  118.1723  123.8410   87.7468 S   0  0  0  0  0  6  0  0  0  0  0  0
  117.9961  125.2717   87.8810 O   0  0  0  0  0  0  0  0  0  0  0  0
  117.0458  122.9732   87.4714 O   0  0  0  0  0  0  0  0  0  0  0  0
  119.3580  123.6026   86.4360 C   0  0  0  0  0  0  0  0  0  0  0  0
  118.9309  123.5310   85.1093 C   0  0  0  0  0  0  0  0  0  0  0  0
  119.8706  123.3759   84.0855 C   0  0  0  0  0  0  0  0  0  0  0  0
  121.2416  123.3110   84.3722 C   0  0  0  0  0  0  0  0  0  0  0  0
  122.1144  123.1485   83.2769 N   0  0  0  0  0  0  0  0  0  0  0  0
  123.2174  122.2921   83.1721 C   0  0  0  0  0  0  0  0  0  0  0  0
  123.3150  121.2264   83.7816 O   0  0  0  0  0  0  0  0  0  0  0  0
  124.2965  122.7808   82.1676 C   0  0  0  0  0  0  0  0  0  0  0  0
  125.9065  122.1623   82.5949 Cl  0  0  0  0  0  0  0  0  0  0  0  0
  124.3299  124.5710   82.1647 Cl  0  0  0  0  0  0  0  0  0  0  0  0
  123.8292  122.2019   80.5428 Cl  0  0  0  0  0  0  0  0  0  0  0  0
  121.6583  123.4223   85.7006 C   0  0  0  0  0  0  0  0  0  0  0  0
  120.7224  123.5801   86.7301 C   0  0  0  0  0  0  0  0  0  0  0  0
  119.1423  127.2246   91.0164 H   0  0  0  0  0  0  0  0  0  0  0  0
  120.0834  126.7056   89.5771 H   0  0  0  0  0  0  0  0  0  0  0  0
  118.2925  126.5668   89.5771 H   0  0  0  0  0  0  0  0  0  0  0  0
  119.9100  125.1370   91.6926 H   0  0  0  0  0  0  0  0  0  0  0  0
  118.2840  124.7373   90.9657 H   0  0  0  0  0  0  0  0  0  0  0  0
  120.5409  124.6443   89.0632 H   0  0  0  0  0  0  0  0  0  0  0  0
  120.6100  123.4256   90.4021 H   0  0  0  0  0  0  0  0  0  0  0  0
  118.0565  121.7832   90.3130 H   0  0  0  0  0  0  0  0  0  0  0  0
  118.5974  121.2834   88.6282 H   0  0  0  0  0  0  0  0  0  0  0  0
  120.7395  120.9104   89.2579 H   0  0  0  0  0  0  0  0  0  0  0  0
  120.5957  122.0132   90.7135 H   0  0  0  0  0  0  0  0  0  0  0  0
  119.9431  120.3649   92.0626 H   0  0  0  0  0  0  0  0  0  0  0  0
  118.8829  119.6217   90.8175 H   0  0  0  0  0  0  0  0  0  0  0  0
  120.6459  119.2775   90.8175 H   0  0  0  0  0  0  0  0  0  0  0  0
  117.8593  123.5963   84.8699 H   0  0  0  0  0  0  0  0  0  0  0  0
  119.5301  123.3038   83.0421 H   0  0  0  0  0  0  0  0  0  0  0  0
  121.9162  123.7320   82.4516 H   0  0  0  0  0  0  0  0  0  0  0  0
  122.7312  123.3855   85.9402 H   0  0  0  0  0  0  0  0  0  0  0  0
  121.0624  123.6864   87.7708 H   0  0  0  0  0  0  0  0  0  0  0  0
  1  2  1  0
  2  3  1  0
  3  4  1  0
  4  5  1  0
  5  6  1  0
  6  7  1  0
  4  8  1  0
  8  9  2  0
  8 10  2  0
  8 11  1  0
 11 12  2  0
 12 13  1  0
 13 14  2  0
 14 15  1  0
 15 16  1  0
 16 17  2  0
 16 18  1  0
 18 19  1  0
 18 20  1  0
 18 21  1  0
 14 22  1  0
 22 23  2  0
 23 11  1  0
  1 24  1  0
  1 25  1  0
  1 26  1  0
  2 27  1  0
  2 28  1  0
  3 29  1  0
  3 30  1  0
  5 31  1  0
  5 32  1  0
  6 33  1  0
  6 34  1  0
  7 35  1  0
  7 36  1  0
  7 37  1  0
 12 38  1  0
 13 39  1  0
 15 40  1  0
 22 41  1  0
 23 42  1  0
M  END
>  <loss>  (17) 
0.6769648790359497

>  <score>  (17) 
-12.289055824279785

$$$$
WFMVFIYQPAXONU-UHFFFAOYSA-N
     RDKit          3D

 42 42  0  0  0  0  0  0  0  0999 V2000
  118.5128  120.7938   90.8800 C   0  0  0  0  0  0  0  0  0  0  0  0
  119.0063  121.5671   89.6669 C   0  0  0  0  0  0  0  0  0  0  0  0
  119.1743  123.0643   89.9260 C   0  0  0  0  0  0  0  0  0  0  0  0
  118.6834  123.8685   88.7939 N   0  0  0  0  0  0  0  0  0  0  0  0
  118.9880  125.3123   88.6959 C   0  0  0  0  0  0  0  0  0  0  0  0
  119.1688  126.0470   90.0236 C   0  0  0  0  0  0  0  0  0  0  0  0
  118.5453  127.4330   90.0518 C   0  0  0  0  0  0  0  0  0  0  0  0
  117.9617  123.0870   87.4768 S   0  0  0  0  0  6  0  0  0  0  0  0
  116.8424  123.8872   87.0269 O   0  0  0  0  0  0  0  0  0  0  0  0
  117.7989  121.6839   87.7952 O   0  0  0  0  0  0  0  0  0  0  0  0
  119.2280  123.1904   86.2287 C   0  0  0  0  0  0  0  0  0  0  0  0
  118.8682  123.3138   84.8863 C   0  0  0  0  0  0  0  0  0  0  0  0
  119.8655  123.4210   83.9127 C   0  0  0  0  0  0  0  0  0  0  0  0
  121.2224  123.4179   84.2694 C   0  0  0  0  0  0  0  0  0  0  0  0
  122.1566  123.5259   83.2189 N   0  0  0  0  0  0  0  0  0  0  0  0
  123.0850  122.5703   82.7876 C   0  0  0  0  0  0  0  0  0  0  0  0
  122.9091  121.3552   82.8826 O   0  0  0  0  0  0  0  0  0  0  0  0
  124.3485  123.1808   82.1220 C   0  0  0  0  0  0  0  0  0  0  0  0
  125.8376  122.5518   82.8591 Cl  0  0  0  0  0  0  0  0  0  0  0  0
  124.3022  122.7658   80.3843 Cl  0  0  0  0  0  0  0  0  0  0  0  0
  124.3046  124.9621   82.2998 Cl  0  0  0  0  0  0  0  0  0  0  0  0
  121.5655  123.3189   85.6202 C   0  0  0  0  0  0  0  0  0  0  0  0
  120.5726  123.2143   86.6013 C   0  0  0  0  0  0  0  0  0  0  0  0
  118.8389  121.3047   91.7980 H   0  0  0  0  0  0  0  0  0  0  0  0
  117.4142  120.7419   90.8597 H   0  0  0  0  0  0  0  0  0  0  0  0
  118.9285  119.7756   90.8597 H   0  0  0  0  0  0  0  0  0  0  0  0
  119.9799  121.1548   89.3634 H   0  0  0  0  0  0  0  0  0  0  0  0
  118.2442  121.4579   88.8812 H   0  0  0  0  0  0  0  0  0  0  0  0
  118.6081  123.3361   90.8291 H   0  0  0  0  0  0  0  0  0  0  0  0
  120.2464  123.2728   90.0571 H   0  0  0  0  0  0  0  0  0  0  0  0
  119.9188  125.4222   88.1202 H   0  0  0  0  0  0  0  0  0  0  0  0
  118.1091  125.7706   88.2189 H   0  0  0  0  0  0  0  0  0  0  0  0
  118.7068  125.4434   90.8188 H   0  0  0  0  0  0  0  0  0  0  0  0
  120.2508  126.1811   90.1689 H   0  0  0  0  0  0  0  0  0  0  0  0
  118.4029  127.7498   91.0956 H   0  0  0  0  0  0  0  0  0  0  0  0
  119.2101  128.1446   89.5402 H   0  0  0  0  0  0  0  0  0  0  0  0
  117.5719  127.4077   89.5402 H   0  0  0  0  0  0  0  0  0  0  0  0
  117.8072  123.3267   84.5961 H   0  0  0  0  0  0  0  0  0  0  0  0
  119.5829  123.5089   82.8532 H   0  0  0  0  0  0  0  0  0  0  0  0
  122.1562  124.4185   82.7048 H   0  0  0  0  0  0  0  0  0  0  0  0
  122.6252  123.3230   85.9152 H   0  0  0  0  0  0  0  0  0  0  0  0
  120.8516  123.1513   87.6635 H   0  0  0  0  0  0  0  0  0  0  0  0
  1  2  1  0
  2  3  1  0
  3  4  1  0
  4  5  1  0
  5  6  1  0
  6  7  1  0
  4  8  1  0
  8  9  2  0
  8 10  2  0
  8 11  1  0
 11 12  2  0
 12 13  1  0
 13 14  2  0
 14 15  1  0
 15 16  1  0
 16 17  2  0
 16 18  1  0
 18 19  1  0
 18 20  1  0
 18 21  1  0
 14 22  1  0
 22 23  2  0
 23 11  1  0
  1 24  1  0
  1 25  1  0
  1 26  1  0
  2 27  1  0
  2 28  1  0
  3 29  1  0
  3 30  1  0
  5 31  1  0
  5 32  1  0
  6 33  1  0
  6 34  1  0
  7 35  1  0
  7 36  1  0
  7 37  1  0
 12 38  1  0
 13 39  1  0
 15 40  1  0
 22 41  1  0
 23 42  1  0
M  END
>  <loss>  (18) 
0.6910758018493652

>  <score>  (18) 
-12.431502342224121

$$$$
WFMVFIYQPAXONU-UHFFFAOYSA-N
     RDKit          3D

 42 42  0  0  0  0  0  0  0  0999 V2000
  119.5723  121.6647   91.2558 C   0  0  0  0  0  0  0  0  0  0  0  0
  118.6862  122.2884   90.1900 C   0  0  0  0  0  0  0  0  0  0  0  0
  119.3892  123.4481   89.4876 C   0  0  0  0  0  0  0  0  0  0  0  0
  118.4234  124.1376   88.5950 N   0  0  0  0  0  0  0  0  0  0  0  0
  118.6800  125.5850   88.3944 C   0  0  0  0  0  0  0  0  0  0  0  0
  118.9887  126.2583   89.7314 C   0  0  0  0  0  0  0  0  0  0  0  0
  119.3710  127.7178   89.5431 C   0  0  0  0  0  0  0  0  0  0  0  0
  117.8497  123.2591   87.2512 S   0  0  0  0  0  6  0  0  0  0  0  0
  116.7898  124.0235   86.6272 O   0  0  0  0  0  0  0  0  0  0  0  0
  117.6382  121.8864   87.6595 O   0  0  0  0  0  0  0  0  0  0  0  0
  119.2384  123.2778   86.1316 C   0  0  0  0  0  0  0  0  0  0  0  0
  120.5371  123.2163   86.6392 C   0  0  0  0  0  0  0  0  0  0  0  0
  121.6243  123.2639   85.7616 C   0  0  0  0  0  0  0  0  0  0  0  0
  121.4269  123.3852   84.3781 C   0  0  0  0  0  0  0  0  0  0  0  0
  122.5825  123.4228   83.5710 N   0  0  0  0  0  0  0  0  0  0  0  0
  123.2732  122.3454   83.0021 C   0  0  0  0  0  0  0  0  0  0  0  0
  122.9699  121.1662   83.1865 O   0  0  0  0  0  0  0  0  0  0  0  0
  124.5023  122.7683   82.1519 C   0  0  0  0  0  0  0  0  0  0  0  0
  125.9726  122.3728   83.0878 Cl  0  0  0  0  0  0  0  0  0  0  0  0
  124.4436  124.5359   81.8731 Cl  0  0  0  0  0  0  0  0  0  0  0  0
  124.5302  121.9251   80.5885 Cl  0  0  0  0  0  0  0  0  0  0  0  0
  120.1215  123.4728   83.8876 C   0  0  0  0  0  0  0  0  0  0  0  0
  119.0279  123.4305   84.7606 C   0  0  0  0  0  0  0  0  0  0  0  0
  119.1914  121.9328   92.2523 H   0  0  0  0  0  0  0  0  0  0  0  0
  119.5665  120.5705   91.1433 H   0  0  0  0  0  0  0  0  0  0  0  0
  120.6004  122.0394   91.1433 H   0  0  0  0  0  0  0  0  0  0  0  0
  118.4295  121.5214   89.4445 H   0  0  0  0  0  0  0  0  0  0  0  0
  117.7805  122.6778   90.6780 H   0  0  0  0  0  0  0  0  0  0  0  0
  119.7674  124.1577   90.2382 H   0  0  0  0  0  0  0  0  0  0  0  0
  120.2313  123.0637   88.8934 H   0  0  0  0  0  0  0  0  0  0  0  0
  119.5380  125.7112   87.7177 H   0  0  0  0  0  0  0  0  0  0  0  0
  117.7843  126.0504   87.9573 H   0  0  0  0  0  0  0  0  0  0  0  0
  118.0980  126.2019   90.3745 H   0  0  0  0  0  0  0  0  0  0  0  0
  119.8384  125.7351   90.1942 H   0  0  0  0  0  0  0  0  0  0  0  0
  119.4958  128.1941   90.5268 H   0  0  0  0  0  0  0  0  0  0  0  0
  120.3158  127.7801   88.9831 H   0  0  0  0  0  0  0  0  0  0  0  0
  118.5781  128.2353   88.9831 H   0  0  0  0  0  0  0  0  0  0  0  0
  120.7042  123.1310   87.7231 H   0  0  0  0  0  0  0  0  0  0  0  0
  122.6476  123.2054   86.1610 H   0  0  0  0  0  0  0  0  0  0  0  0
  122.9662  124.3585   83.3757 H   0  0  0  0  0  0  0  0  0  0  0  0
  119.9516  123.5760   82.8057 H   0  0  0  0  0  0  0  0  0  0  0  0
  118.0046  123.5175   84.3665 H   0  0  0  0  0  0  0  0  0  0  0  0
  1  2  1  0
  2  3  1  0
  3  4  1  0
  4  5  1  0
  5  6  1  0
  6  7  1  0
  4  8  1  0
  8  9  2  0
  8 10  2  0
  8 11  1  0
 11 12  2  0
 12 13  1  0
 13 14  2  0
 14 15  1  0
 15 16  1  0
 16 17  2  0
 16 18  1  0
 18 19  1  0
 18 20  1  0
 18 21  1  0
 14 22  1  0
 22 23  2  0
 23 11  1  0
  1 24  1  0
  1 25  1  0
  1 26  1  0
  2 27  1  0
  2 28  1  0
  3 29  1  0
  3 30  1  0
  5 31  1  0
  5 32  1  0
  6 33  1  0
  6 34  1  0
  7 35  1  0
  7 36  1  0
  7 37  1  0
 12 38  1  0
 13 39  1  0
 15 40  1  0
 22 41  1  0
 23 42  1  0
M  END
>  <loss>  (19) 
0.6856527328491211

>  <score>  (19) 
-14.134320259094238

$$$$
WFMVFIYQPAXONU-UHFFFAOYSA-N
     RDKit          3D

 42 42  0  0  0  0  0  0  0  0999 V2000
  117.8060  119.6029   89.5355 C   0  0  0  0  0  0  0  0  0  0  0  0
  117.5757  121.1028   89.4486 C   0  0  0  0  0  0  0  0  0  0  0  0
  118.8891  121.8596   89.2620 C   0  0  0  0  0  0  0  0  0  0  0  0
  118.6008  123.3068   89.0961 N   0  0  0  0  0  0  0  0  0  0  0  0
  119.5766  124.2175   89.7436 C   0  0  0  0  0  0  0  0  0  0  0  0
  119.9417  123.6998   91.1346 C   0  0  0  0  0  0  0  0  0  0  0  0
  121.0706  124.5112   91.7506 C   0  0  0  0  0  0  0  0  0  0  0  0
  117.9583  123.7999   87.5959 S   0  0  0  0  0  6  0  0  0  0  0  0
  117.6742  125.2182   87.6671 O   0  0  0  0  0  0  0  0  0  0  0  0
  116.9357  122.8533   87.2036 O   0  0  0  0  0  0  0  0  0  0  0  0
  119.3343  123.5966   86.4789 C   0  0  0  0  0  0  0  0  0  0  0  0
  120.6344  123.5490   86.9845 C   0  0  0  0  0  0  0  0  0  0  0  0
  121.7132  123.4222   86.1042 C   0  0  0  0  0  0  0  0  0  0  0  0
  121.5064  123.3549   84.7184 C   0  0  0  0  0  0  0  0  0  0  0  0
  122.6538  123.2252   83.9092 N   0  0  0  0  0  0  0  0  0  0  0  0
  122.7785  122.5450   82.6912 C   0  0  0  0  0  0  0  0  0  0  0  0
  121.8471  121.9596   82.1379 O   0  0  0  0  0  0  0  0  0  0  0  0
  124.2221  122.5464   82.1181 C   0  0  0  0  0  0  0  0  0  0  0  0
  125.2285  121.5173   83.1775 Cl  0  0  0  0  0  0  0  0  0  0  0  0
  124.8632  124.2179   82.1451 Cl  0  0  0  0  0  0  0  0  0  0  0  0
  124.2593  121.9272   80.4534 Cl  0  0  0  0  0  0  0  0  0  0  0  0
  120.2010  123.4311   84.2262 C   0  0  0  0  0  0  0  0  0  0  0  0
  119.1161  123.5627   85.1010 C   0  0  0  0  0  0  0  0  0  0  0  0
  117.8526  119.2996   90.5919 H   0  0  0  0  0  0  0  0  0  0  0  0
  116.9784  119.0754   89.0388 H   0  0  0  0  0  0  0  0  0  0  0  0
  118.7538  119.3481   89.0388 H   0  0  0  0  0  0  0  0  0  0  0  0
  116.9164  121.3144   88.5940 H   0  0  0  0  0  0  0  0  0  0  0  0
  117.1150  121.4368   90.3900 H   0  0  0  0  0  0  0  0  0  0  0  0
  119.5279  121.7108   90.1451 H   0  0  0  0  0  0  0  0  0  0  0  0
  119.4088  121.4822   88.3690 H   0  0  0  0  0  0  0  0  0  0  0  0
  120.4857  124.2733   89.1268 H   0  0  0  0  0  0  0  0  0  0  0  0
  119.1254  125.2160   89.8400 H   0  0  0  0  0  0  0  0  0  0  0  0
  119.0570  123.7667   91.7849 H   0  0  0  0  0  0  0  0  0  0  0  0
  120.2779  122.6569   91.0384 H   0  0  0  0  0  0  0  0  0  0  0  0
  121.0017  124.4616   92.8473 H   0  0  0  0  0  0  0  0  0  0  0  0
  122.0375  124.1001   91.4250 H   0  0  0  0  0  0  0  0  0  0  0  0
  120.9892  125.5587   91.4250 H   0  0  0  0  0  0  0  0  0  0  0  0
  120.8092  123.6109   88.0687 H   0  0  0  0  0  0  0  0  0  0  0  0
  122.7371  123.3747   86.5035 H   0  0  0  0  0  0  0  0  0  0  0  0
  123.5058  123.6879   84.2569 H   0  0  0  0  0  0  0  0  0  0  0  0
  120.0242  123.3873   83.1414 H   0  0  0  0  0  0  0  0  0  0  0  0
  118.0935  123.6392   84.7031 H   0  0  0  0  0  0  0  0  0  0  0  0
  1  2  1  0
  2  3  1  0
  3  4  1  0
  4  5  1  0
  5  6  1  0
  6  7  1  0
  4  8  1  0
  8  9  2  0
  8 10  2  0
  8 11  1  0
 11 12  2  0
 12 13  1  0
 13 14  2  0
 14 15  1  0
 15 16  1  0
 16 17  2  0
 16 18  1  0
 18 19  1  0
 18 20  1  0
 18 21  1  0
 14 22  1  0
 22 23  2  0
 23 11  1  0
  1 24  1  0
  1 25  1  0
  1 26  1  0
  2 27  1  0
  2 28  1  0
  3 29  1  0
  3 30  1  0
  5 31  1  0
  5 32  1  0
  6 33  1  0
  6 34  1  0
  7 35  1  0
  7 36  1  0
  7 37  1  0
 12 38  1  0
 13 39  1  0
 15 40  1  0
 22 41  1  0
 23 42  1  0
M  END
>  <loss>  (20) 
0.6928275227546692

>  <score>  (20) 
-15.137044906616211

$$$$
WFMVFIYQPAXONU-UHFFFAOYSA-N
     RDKit          3D

 42 42  0  0  0  0  0  0  0  0999 V2000
  116.6957  121.0199   89.9248 C   0  0  0  0  0  0  0  0  0  0  0  0
  117.7744  121.0865   88.8547 C   0  0  0  0  0  0  0  0  0  0  0  0
  119.0532  121.7819   89.3215 C   0  0  0  0  0  0  0  0  0  0  0  0
  118.9846  123.2385   89.1140 N   0  0  0  0  0  0  0  0  0  0  0  0
  119.7792  124.1654   89.9484 C   0  0  0  0  0  0  0  0  0  0  0  0
  120.1419  123.6610   91.3446 C   0  0  0  0  0  0  0  0  0  0  0  0
  121.5456  124.0364   91.7910 C   0  0  0  0  0  0  0  0  0  0  0  0
  118.1685  123.8424   87.7592 S   0  0  0  0  0  6  0  0  0  0  0  0
  117.9828  125.2674   87.9342 O   0  0  0  0  0  0  0  0  0  0  0  0
  117.0502  122.9731   87.4586 O   0  0  0  0  0  0  0  0  0  0  0  0
  119.3639  123.6153   86.4587 C   0  0  0  0  0  0  0  0  0  0  0  0
  118.9380  123.5419   85.1321 C   0  0  0  0  0  0  0  0  0  0  0  0
  119.8822  123.3900   84.1126 C   0  0  0  0  0  0  0  0  0  0  0  0
  121.2526  123.3224   84.4055 C   0  0  0  0  0  0  0  0  0  0  0  0
  122.1296  123.1640   83.3129 N   0  0  0  0  0  0  0  0  0  0  0  0
  123.2506  122.3297   83.2196 C   0  0  0  0  0  0  0  0  0  0  0  0
  123.3812  121.2866   83.8609 O   0  0  0  0  0  0  0  0  0  0  0  0
  124.3045  122.8108   82.1852 C   0  0  0  0  0  0  0  0  0  0  0  0
  125.9408  122.2842   82.6343 Cl  0  0  0  0  0  0  0  0  0  0  0  0
  123.8563  122.1294   80.5950 Cl  0  0  0  0  0  0  0  0  0  0  0  0
  124.2614  124.5983   82.0892 Cl  0  0  0  0  0  0  0  0  0  0  0  0
  121.6645  123.4227   85.7368 C   0  0  0  0  0  0  0  0  0  0  0  0
  120.7253  123.5781   86.7631 C   0  0  0  0  0  0  0  0  0  0  0  0
  117.1639  121.0488   90.9197 H   0  0  0  0  0  0  0  0  0  0  0  0
  116.0161  121.8778   89.8143 H   0  0  0  0  0  0  0  0  0  0  0  0
  116.1268  120.0850   89.8143 H   0  0  0  0  0  0  0  0  0  0  0  0
  118.0272  120.0600   88.5505 H   0  0  0  0  0  0  0  0  0  0  0  0
  117.3685  121.6799   88.0221 H   0  0  0  0  0  0  0  0  0  0  0  0
  119.1985  121.5803   90.3931 H   0  0  0  0  0  0  0  0  0  0  0  0
  119.8939  121.3892   88.7306 H   0  0  0  0  0  0  0  0  0  0  0  0
  120.7160  124.3814   89.4139 H   0  0  0  0  0  0  0  0  0  0  0  0
  119.1399  125.0466   90.1065 H   0  0  0  0  0  0  0  0  0  0  0  0
  119.4251  124.0855   92.0630 H   0  0  0  0  0  0  0  0  0  0  0  0
  120.1025  122.5624   91.3068 H   0  0  0  0  0  0  0  0  0  0  0  0
  121.5900  124.0483   92.8900 H   0  0  0  0  0  0  0  0  0  0  0  0
  122.2634  123.2987   91.4030 H   0  0  0  0  0  0  0  0  0  0  0  0
  121.7993  125.0340   91.4030 H   0  0  0  0  0  0  0  0  0  0  0  0
  117.8666  123.6031   84.8902 H   0  0  0  0  0  0  0  0  0  0  0  0
  119.5465  123.3226   83.0672 H   0  0  0  0  0  0  0  0  0  0  0  0
  121.9198  123.7324   82.4800 H   0  0  0  0  0  0  0  0  0  0  0  0
  122.7363  123.3791   85.9806 H   0  0  0  0  0  0  0  0  0  0  0  0
  121.0596  123.6707   87.8070 H   0  0  0  0  0  0  0  0  0  0  0  0
  1  2  1  0
  2  3  1  0
  3  4  1  0
  4  5  1  0
  5  6  1  0
  6  7  1  0
  4  8  1  0
  8  9  2  0
  8 10  2  0
  8 11  1  0
 11 12  2  0
 12 13  1  0
 13 14  2  0
 14 15  1  0
 15 16  1  0
 16 17  2  0
 16 18  1  0
 18 19  1  0
 18 20  1  0
 18 21  1  0
 14 22  1  0
 22 23  2  0
 23 11  1  0
  1 24  1  0
  1 25  1  0
  1 26  1  0
  2 27  1  0
  2 28  1  0
  3 29  1  0
  3 30  1  0
  5 31  1  0
  5 32  1  0
  6 33  1  0
  6 34  1  0
  7 35  1  0
  7 36  1  0
  7 37  1  0
 12 38  1  0
 13 39  1  0
 15 40  1  0
 22 41  1  0
 23 42  1  0
M  END
>  <loss>  (21) 
0.7006305456161499

>  <score>  (21) 
-16.519609451293945

$$$$
WFMVFIYQPAXONU-UHFFFAOYSA-N
     RDKit          3D

 42 42  0  0  0  0  0  0  0  0999 V2000
  118.2748  127.4453   89.4585 C   0  0  0  0  0  0  0  0  0  0  0  0
  118.6521  126.0571   89.9567 C   0  0  0  0  0  0  0  0  0  0  0  0
  119.2834  125.1922   88.8654 C   0  0  0  0  0  0  0  0  0  0  0  0
  118.6370  123.8588   88.8011 N   0  0  0  0  0  0  0  0  0  0  0  0
  119.3507  122.7802   89.5297 C   0  0  0  0  0  0  0  0  0  0  0  0
  118.3451  121.7261   89.9882 C   0  0  0  0  0  0  0  0  0  0  0  0
  118.9537  120.7887   91.0184 C   0  0  0  0  0  0  0  0  0  0  0  0
  117.8743  123.4359   87.3374 S   0  0  0  0  0  6  0  0  0  0  0  0
  117.4056  122.0705   87.4434 O   0  0  0  0  0  0  0  0  0  0  0  0
  116.9727  124.5080   86.9698 O   0  0  0  0  0  0  0  0  0  0  0  0
  119.2154  123.4518   86.1611 C   0  0  0  0  0  0  0  0  0  0  0  0
  120.5368  123.4258   86.6089 C   0  0  0  0  0  0  0  0  0  0  0  0
  121.5868  123.4094   85.6832 C   0  0  0  0  0  0  0  0  0  0  0  0
  121.3249  123.3967   84.3109 C   0  0  0  0  0  0  0  0  0  0  0  0
  122.3205  123.3766   83.3127 N   0  0  0  0  0  0  0  0  0  0  0  0
  123.1391  122.3059   82.9316 C   0  0  0  0  0  0  0  0  0  0  0  0
  122.8917  121.1293   83.1974 O   0  0  0  0  0  0  0  0  0  0  0  0
  124.4291  122.7394   82.1828 C   0  0  0  0  0  0  0  0  0  0  0  0
  125.8879  122.1719   83.0229 Cl  0  0  0  0  0  0  0  0  0  0  0  0
  124.4302  124.5243   82.0907 Cl  0  0  0  0  0  0  0  0  0  0  0  0
  124.3991  122.0675   80.5236 Cl  0  0  0  0  0  0  0  0  0  0  0  0
  119.9914  123.3907   83.8755 C   0  0  0  0  0  0  0  0  0  0  0  0
  118.9375  123.4116   84.7939 C   0  0  0  0  0  0  0  0  0  0  0  0
  118.0949  128.1071   90.3186 H   0  0  0  0  0  0  0  0  0  0  0  0
  119.0951  127.8515   88.8486 H   0  0  0  0  0  0  0  0  0  0  0  0
  117.3617  127.3804   88.8486 H   0  0  0  0  0  0  0  0  0  0  0  0
  119.3710  126.1625   90.7826 H   0  0  0  0  0  0  0  0  0  0  0  0
  117.7281  125.5582   90.2842 H   0  0  0  0  0  0  0  0  0  0  0  0
  119.1657  125.6959   87.8946 H   0  0  0  0  0  0  0  0  0  0  0  0
  120.3487  125.0532   89.1019 H   0  0  0  0  0  0  0  0  0  0  0  0
  120.0916  122.3150   88.8629 H   0  0  0  0  0  0  0  0  0  0  0  0
  119.8627  123.2051   90.4057 H   0  0  0  0  0  0  0  0  0  0  0  0
  117.4755  122.2313   90.4338 H   0  0  0  0  0  0  0  0  0  0  0  0
  118.0452  121.1306   89.1133 H   0  0  0  0  0  0  0  0  0  0  0  0
  118.7177  121.1521   92.0295 H   0  0  0  0  0  0  0  0  0  0  0  0
  118.5385  119.7787   90.8856 H   0  0  0  0  0  0  0  0  0  0  0  0
  120.0452  120.7568   90.8856 H   0  0  0  0  0  0  0  0  0  0  0  0
  120.7530  123.4182   87.6875 H   0  0  0  0  0  0  0  0  0  0  0  0
  122.6275  123.4065   86.0395 H   0  0  0  0  0  0  0  0  0  0  0  0
  122.4636  124.2586   82.8003 H   0  0  0  0  0  0  0  0  0  0  0  0
  119.7722  123.3693   82.7978 H   0  0  0  0  0  0  0  0  0  0  0  0
  117.8957  123.3965   84.4412 H   0  0  0  0  0  0  0  0  0  0  0  0
  1  2  1  0
  2  3  1  0
  3  4  1  0
  4  5  1  0
  5  6  1  0
  6  7  1  0
  4  8  1  0
  8  9  2  0
  8 10  2  0
  8 11  1  0
 11 12  2  0
 12 13  1  0
 13 14  2  0
 14 15  1  0
 15 16  1  0
 16 17  2  0
 16 18  1  0
 18 19  1  0
 18 20  1  0
 18 21  1  0
 14 22  1  0
 22 23  2  0
 23 11  1  0
  1 24  1  0
  1 25  1  0
  1 26  1  0
  2 27  1  0
  2 28  1  0
  3 29  1  0
  3 30  1  0
  5 31  1  0
  5 32  1  0
  6 33  1  0
  6 34  1  0
  7 35  1  0
  7 36  1  0
  7 37  1  0
 12 38  1  0
 13 39  1  0
 15 40  1  0
 22 41  1  0
 23 42  1  0
M  END
>  <loss>  (22) 
0.6798309683799744

>  <score>  (22) 
-18.551250457763672

$$$$
WFMVFIYQPAXONU-UHFFFAOYSA-N
     RDKit          3D

 42 42  0  0  0  0  0  0  0  0999 V2000
  121.8619  125.3660   92.0100 C   0  0  0  0  0  0  0  0  0  0  0  0
  120.6495  124.5087   91.6789 C   0  0  0  0  0  0  0  0  0  0  0  0
  120.9585  123.3773   90.6961 C   0  0  0  0  0  0  0  0  0  0  0  0
  119.7260  122.8085   90.1207 N   0  0  0  0  0  0  0  0  0  0  0  0
  119.4938  121.3624   90.3054 C   0  0  0  0  0  0  0  0  0  0  0  0
  120.6686  120.5914   90.8966 C   0  0  0  0  0  0  0  0  0  0  0  0
  120.4669  119.0853   90.9350 C   0  0  0  0  0  0  0  0  0  0  0  0
  118.7788  123.7207   89.0630 S   0  0  0  0  0  6  0  0  0  0  0  0
  118.8822  125.1153   89.4376 O   0  0  0  0  0  0  0  0  0  0  0  0
  117.4882  123.0737   88.9449 O   0  0  0  0  0  0  0  0  0  0  0  0
  119.5969  123.5632   87.4860 C   0  0  0  0  0  0  0  0  0  0  0  0
  118.8549  123.6024   86.3046 C   0  0  0  0  0  0  0  0  0  0  0  0
  119.5083  123.5100   85.0718 C   0  0  0  0  0  0  0  0  0  0  0  0
  120.9044  123.3982   85.0050 C   0  0  0  0  0  0  0  0  0  0  0  0
  121.4751  123.3053   83.7191 N   0  0  0  0  0  0  0  0  0  0  0  0
  122.7207  122.7727   83.3643 C   0  0  0  0  0  0  0  0  0  0  0  0
  123.3765  122.0260   84.0916 O   0  0  0  0  0  0  0  0  0  0  0  0
  123.1857  123.1656   81.9354 C   0  0  0  0  0  0  0  0  0  0  0  0
  124.9582  123.2001   81.8177 Cl  0  0  0  0  0  0  0  0  0  0  0  0
  122.5321  124.7818   81.5275 Cl  0  0  0  0  0  0  0  0  0  0  0  0
  122.5195  121.9608   80.7961 Cl  0  0  0  0  0  0  0  0  0  0  0  0
  121.6381  123.3986   86.1934 C   0  0  0  0  0  0  0  0  0  0  0  0
  120.9899  123.4931   87.4309 C   0  0  0  0  0  0  0  0  0  0  0  0
  121.9698  125.4423   93.1021 H   0  0  0  0  0  0  0  0  0  0  0  0
  122.7648  124.9045   91.5837 H   0  0  0  0  0  0  0  0  0  0  0  0
  121.7277  126.3711   91.5837 H   0  0  0  0  0  0  0  0  0  0  0  0
  120.2691  124.0668   92.6116 H   0  0  0  0  0  0  0  0  0  0  0  0
  119.9083  125.1643   91.1983 H   0  0  0  0  0  0  0  0  0  0  0  0
  121.5837  123.7722   89.8818 H   0  0  0  0  0  0  0  0  0  0  0  0
  121.4837  122.5800   91.2424 H   0  0  0  0  0  0  0  0  0  0  0  0
  118.6316  121.2383   90.9771 H   0  0  0  0  0  0  0  0  0  0  0  0
  119.3281  120.9469   89.3005 H   0  0  0  0  0  0  0  0  0  0  0  0
  121.5616  120.8050   90.2909 H   0  0  0  0  0  0  0  0  0  0  0  0
  120.7730  120.9239   91.9399 H   0  0  0  0  0  0  0  0  0  0  0  0
  120.4218  118.7480   91.9810 H   0  0  0  0  0  0  0  0  0  0  0  0
  119.5263  118.8282   90.4259 H   0  0  0  0  0  0  0  0  0  0  0  0
  121.3068  118.5898   90.4259 H   0  0  0  0  0  0  0  0  0  0  0  0
  117.7604  123.7055   86.3431 H   0  0  0  0  0  0  0  0  0  0  0  0
  118.9196  123.5252   84.1427 H   0  0  0  0  0  0  0  0  0  0  0  0
  120.9053  123.6748   82.9448 H   0  0  0  0  0  0  0  0  0  0  0  0
  122.7349  123.3239   86.1568 H   0  0  0  0  0  0  0  0  0  0  0  0
  121.5787  123.5123   88.3599 H   0  0  0  0  0  0  0  0  0  0  0  0
  1  2  1  0
  2  3  1  0
  3  4  1  0
  4  5  1  0
  5  6  1  0
  6  7  1  0
  4  8  1  0
  8  9  2  0
  8 10  2  0
  8 11  1  0
 11 12  2  0
 12 13  1  0
 13 14  2  0
 14 15  1  0
 15 16  1  0
 16 17  2  0
 16 18  1  0
 18 19  1  0
 18 20  1  0
 18 21  1  0
 14 22  1  0
 22 23  2  0
 23 11  1  0
  1 24  1  0
  1 25  1  0
  1 26  1  0
  2 27  1  0
  2 28  1  0
  3 29  1  0
  3 30  1  0
  5 31  1  0
  5 32  1  0
  6 33  1  0
  6 34  1  0
  7 35  1  0
  7 36  1  0
  7 37  1  0
 12 38  1  0
 13 39  1  0
 15 40  1  0
 22 41  1  0
 23 42  1  0
M  END
>  <loss>  (23) 
0.6809946894645691

>  <score>  (23) 
-23.18412208557129

$$$$
WFMVFIYQPAXONU-UHFFFAOYSA-N
     RDKit          3D

 42 42  0  0  0  0  0  0  0  0999 V2000
  118.0896  127.0477   89.4808 C   0  0  0  0  0  0  0  0  0  0  0  0
  119.0112  125.9579   90.0106 C   0  0  0  0  0  0  0  0  0  0  0  0
  119.5106  125.0230   88.9087 C   0  0  0  0  0  0  0  0  0  0  0  0
  118.6557  123.8154   88.8058 N   0  0  0  0  0  0  0  0  0  0  0  0
  119.1673  122.6219   89.5253 C   0  0  0  0  0  0  0  0  0  0  0  0
  118.0126  121.6604   89.7985 C   0  0  0  0  0  0  0  0  0  0  0  0
  118.5164  120.3099   90.2809 C   0  0  0  0  0  0  0  0  0  0  0  0
  117.8649  123.5485   87.3205 S   0  0  0  0  0  6  0  0  0  0  0  0
  117.2521  122.2376   87.3573 O   0  0  0  0  0  0  0  0  0  0  0  0
  117.0863  124.7277   87.0032 O   0  0  0  0  0  0  0  0  0  0  0  0
  119.2102  123.4779   86.1510 C   0  0  0  0  0  0  0  0  0  0  0  0
  120.5259  123.3803   86.6058 C   0  0  0  0  0  0  0  0  0  0  0  0
  121.5775  123.2962   85.6857 C   0  0  0  0  0  0  0  0  0  0  0  0
  121.3217  123.2868   84.3121 C   0  0  0  0  0  0  0  0  0  0  0  0
  122.3192  123.2015   83.3193 N   0  0  0  0  0  0  0  0  0  0  0  0
  123.4905  122.4337   83.3364 C   0  0  0  0  0  0  0  0  0  0  0  0
  123.7510  121.6053   84.2095 O   0  0  0  0  0  0  0  0  0  0  0  0
  124.4697  122.7591   82.1754 C   0  0  0  0  0  0  0  0  0  0  0  0
  125.9216  121.7379   82.2464 Cl  0  0  0  0  0  0  0  0  0  0  0  0
  124.9246  124.4819   82.3148 Cl  0  0  0  0  0  0  0  0  0  0  0  0
  123.6354  122.4986   80.6128 Cl  0  0  0  0  0  0  0  0  0  0  0  0
  119.9921  123.3532   83.8700 C   0  0  0  0  0  0  0  0  0  0  0  0
  118.9368  123.4420   84.7828 C   0  0  0  0  0  0  0  0  0  0  0  0
  117.6346  127.5858   90.3254 H   0  0  0  0  0  0  0  0  0  0  0  0
  118.6700  127.7523   88.8670 H   0  0  0  0  0  0  0  0  0  0  0  0
  117.2984  126.5925   88.8670 H   0  0  0  0  0  0  0  0  0  0  0  0
  119.8798  126.4332   90.4898 H   0  0  0  0  0  0  0  0  0  0  0  0
  118.4345  125.3523   90.7252 H   0  0  0  0  0  0  0  0  0  0  0  0
  119.4933  125.5585   87.9480 H   0  0  0  0  0  0  0  0  0  0  0  0
  120.5346  124.7065   89.1562 H   0  0  0  0  0  0  0  0  0  0  0  0
  119.9258  122.1184   88.9078 H   0  0  0  0  0  0  0  0  0  0  0  0
  119.6194  122.9333   90.4785 H   0  0  0  0  0  0  0  0  0  0  0  0
  117.3600  122.0951   90.5699 H   0  0  0  0  0  0  0  0  0  0  0  0
  117.4600  121.5081   88.8596 H   0  0  0  0  0  0  0  0  0  0  0  0
  118.5229  120.2925   91.3807 H   0  0  0  0  0  0  0  0  0  0  0  0
  117.8540  119.5160   89.9055 H   0  0  0  0  0  0  0  0  0  0  0  0
  119.5370  120.1439   89.9055 H   0  0  0  0  0  0  0  0  0  0  0  0
  120.7362  123.3696   87.6855 H   0  0  0  0  0  0  0  0  0  0  0  0
  122.6147  123.2369   86.0473 H   0  0  0  0  0  0  0  0  0  0  0  0
  122.1678  123.7748   82.4771 H   0  0  0  0  0  0  0  0  0  0  0  0
  119.7770  123.3351   82.7914 H   0  0  0  0  0  0  0  0  0  0  0  0
  117.8975  123.4833   84.4248 H   0  0  0  0  0  0  0  0  0  0  0  0
  1  2  1  0
  2  3  1  0
  3  4  1  0
  4  5  1  0
  5  6  1  0
  6  7  1  0
  4  8  1  0
  8  9  2  0
  8 10  2  0
  8 11  1  0
 11 12  2  0
 12 13  1  0
 13 14  2  0
 14 15  1  0
 15 16  1  0
 16 17  2  0
 16 18  1  0
 18 19  1  0
 18 20  1  0
 18 21  1  0
 14 22  1  0
 22 23  2  0
 23 11  1  0
  1 24  1  0
  1 25  1  0
  1 26  1  0
  2 27  1  0
  2 28  1  0
  3 29  1  0
  3 30  1  0
  5 31  1  0
  5 32  1  0
  6 33  1  0
  6 34  1  0
  7 35  1  0
  7 36  1  0
  7 37  1  0
 12 38  1  0
 13 39  1  0
 15 40  1  0
 22 41  1  0
 23 42  1  0
M  END
>  <loss>  (24) 
0.6944126486778259

>  <score>  (24) 
-24.419017791748047

$$$$
WFMVFIYQPAXONU-UHFFFAOYSA-N
     RDKit          3D

 42 42  0  0  0  0  0  0  0  0999 V2000
  117.9550  127.1826   89.4443 C   0  0  0  0  0  0  0  0  0  0  0  0
  118.8508  126.0688   89.9686 C   0  0  0  0  0  0  0  0  0  0  0  0
  119.3594  125.1508   88.8568 C   0  0  0  0  0  0  0  0  0  0  0  0
  118.5696  123.8967   88.7976 N   0  0  0  0  0  0  0  0  0  0  0  0
  119.1470  122.7560   89.5520 C   0  0  0  0  0  0  0  0  0  0  0  0
  118.0417  121.7554   89.8834 C   0  0  0  0  0  0  0  0  0  0  0  0
  118.5914  120.5433   90.6177 C   0  0  0  0  0  0  0  0  0  0  0  0
  117.7883  123.5403   87.3261 S   0  0  0  0  0  6  0  0  0  0  0  0
  117.2282  122.2086   87.4162 O   0  0  0  0  0  0  0  0  0  0  0  0
  116.9629  124.6741   86.9649 O   0  0  0  0  0  0  0  0  0  0  0  0
  119.1339  123.4772   86.1566 C   0  0  0  0  0  0  0  0  0  0  0  0
  120.4489  123.3692   86.6109 C   0  0  0  0  0  0  0  0  0  0  0  0
  121.5007  123.2910   85.6904 C   0  0  0  0  0  0  0  0  0  0  0  0
  121.2456  123.2980   84.3167 C   0  0  0  0  0  0  0  0  0  0  0  0
  122.2433  123.2197   83.3234 N   0  0  0  0  0  0  0  0  0  0  0  0
  123.5825  122.8383   83.4736 C   0  0  0  0  0  0  0  0  0  0  0  0
  124.1286  122.6791   84.5657 O   0  0  0  0  0  0  0  0  0  0  0  0
  124.3443  122.6841   82.1288 C   0  0  0  0  0  0  0  0  0  0  0  0
  125.8982  121.8536   82.3555 Cl  0  0  0  0  0  0  0  0  0  0  0  0
  124.6156  124.3220   81.4670 Cl  0  0  0  0  0  0  0  0  0  0  0  0
  123.3326  121.7504   80.9842 Cl  0  0  0  0  0  0  0  0  0  0  0  0
  119.9165  123.3749   83.8747 C   0  0  0  0  0  0  0  0  0  0  0  0
  118.8611  123.4578   84.7879 C   0  0  0  0  0  0  0  0  0  0  0  0
  117.5154  127.7291   90.2918 H   0  0  0  0  0  0  0  0  0  0  0  0
  118.5510  127.8745   88.8313 H   0  0  0  0  0  0  0  0  0  0  0  0
  117.1513  126.7488   88.8313 H   0  0  0  0  0  0  0  0  0  0  0  0
  119.7160  126.5215   90.4750 H   0  0  0  0  0  0  0  0  0  0  0  0
  118.2516  125.4562   90.6584 H   0  0  0  0  0  0  0  0  0  0  0  0
  119.2762  125.6737   87.8927 H   0  0  0  0  0  0  0  0  0  0  0  0
  120.4080  124.8940   89.0677 H   0  0  0  0  0  0  0  0  0  0  0  0
  119.9166  122.2631   88.9399 H   0  0  0  0  0  0  0  0  0  0  0  0
  119.6009  123.1240   90.4840 H   0  0  0  0  0  0  0  0  0  0  0  0
  117.2914  122.2487   90.5188 H   0  0  0  0  0  0  0  0  0  0  0  0
  117.5909  121.4132   88.9402 H   0  0  0  0  0  0  0  0  0  0  0  0
  118.5171  120.7072   91.7029 H   0  0  0  0  0  0  0  0  0  0  0  0
  118.0095  119.6519   90.3408 H   0  0  0  0  0  0  0  0  0  0  0  0
  119.6454  120.3938   90.3408 H   0  0  0  0  0  0  0  0  0  0  0  0
  120.6586  123.3455   87.6904 H   0  0  0  0  0  0  0  0  0  0  0  0
  122.5374  123.2234   86.0518 H   0  0  0  0  0  0  0  0  0  0  0  0
  121.9510  123.4746   82.3692 H   0  0  0  0  0  0  0  0  0  0  0  0
  119.7019  123.3698   82.7958 H   0  0  0  0  0  0  0  0  0  0  0  0
  117.8222  123.5074   84.4299 H   0  0  0  0  0  0  0  0  0  0  0  0
  1  2  1  0
  2  3  1  0
  3  4  1  0
  4  5  1  0
  5  6  1  0
  6  7  1  0
  4  8  1  0
  8  9  2  0
  8 10  2  0
  8 11  1  0
 11 12  2  0
 12 13  1  0
 13 14  2  0
 14 15  1  0
 15 16  1  0
 16 17  2  0
 16 18  1  0
 18 19  1  0
 18 20  1  0
 18 21  1  0
 14 22  1  0
 22 23  2  0
 23 11  1  0
  1 24  1  0
  1 25  1  0
  1 26  1  0
  2 27  1  0
  2 28  1  0
  3 29  1  0
  3 30  1  0
  5 31  1  0
  5 32  1  0
  6 33  1  0
  6 34  1  0
  7 35  1  0
  7 36  1  0
  7 37  1  0
 12 38  1  0
 13 39  1  0
 15 40  1  0
 22 41  1  0
 23 42  1  0
M  END
>  <loss>  (25) 
0.6852921843528748

>  <score>  (25) 
-28.9399471282959

$$$$
