WTEMYUWYDPNDCL-UHFFFAOYSA-N
     RDKit          3D

 36 36  0  0  0  0  0  0  0  0999 V2000
  126.5935  122.8682   84.0696 C   0  0  0  0  0  0  0  0  0  0  0  0
  125.9881  121.9035   85.0522 C   0  0  0  0  0  0  0  0  0  0  0  0
  125.3831  120.8974   84.6966 O   0  0  0  0  0  0  0  0  0  0  0  0
  126.1775  122.2369   86.3684 N   0  0  0  0  0  0  0  0  0  0  0  0
  125.1186  122.0748   87.3644 C   0  0  0  0  0  0  0  0  0  0  0  0
  123.9808  121.1962   86.8245 C   0  0  0  0  0  0  0  0  0  0  0  0
  122.8340  121.9997   86.2596 C   0  0  0  0  0  0  0  0  0  0  0  0
  122.8132  122.3332   84.8959 C   0  0  0  0  0  0  0  0  0  0  0  0
  121.7820  123.1148   84.3769 C   0  0  0  0  0  0  0  0  0  0  0  0
  120.7798  123.5698   85.2295 C   0  0  0  0  0  0  0  0  0  0  0  0
  119.7361  124.3310   84.7046 O   0  0  0  0  0  0  0  0  0  0  0  0
  118.7320  123.5494   84.1457 C   0  0  0  0  0  0  0  0  0  0  0  0
  117.5472  124.4238   83.8591 C   0  0  0  0  0  0  0  0  0  0  0  0
  118.7722  122.3487   83.9120 O   0  0  0  0  0  0  0  0  0  0  0  0
  120.7635  123.2254   86.5788 C   0  0  0  0  0  0  0  0  0  0  0  0
  121.7966  122.4434   87.0944 C   0  0  0  0  0  0  0  0  0  0  0  0
  125.7792  121.4205   88.5792 C   0  0  0  0  0  0  0  0  0  0  0  0
  126.2272  122.3294   89.6941 C   0  0  0  0  0  0  0  0  0  0  0  0
  125.9708  120.2012   88.6272 O   0  0  0  0  0  0  0  0  0  0  0  0
  127.1012  123.6772   84.6152 H   0  0  0  0  0  0  0  0  0  0  0  0
  127.3217  122.3390   83.4374 H   0  0  0  0  0  0  0  0  0  0  0  0
  125.8003  123.2938   83.4374 H   0  0  0  0  0  0  0  0  0  0  0  0
  127.0903  122.6116   86.6640 H   0  0  0  0  0  0  0  0  0  0  0  0
  124.6667  123.0435   87.6243 H   0  0  0  0  0  0  0  0  0  0  0  0
  124.3827  120.5515   86.0290 H   0  0  0  0  0  0  0  0  0  0  0  0
  123.5883  120.6098   87.6683 H   0  0  0  0  0  0  0  0  0  0  0  0
  123.6152  121.9758   84.2333 H   0  0  0  0  0  0  0  0  0  0  0  0
  121.7605  123.3689   83.3068 H   0  0  0  0  0  0  0  0  0  0  0  0
  117.0982  124.7551   84.8071 H   0  0  0  0  0  0  0  0  0  0  0  0
  117.8706  125.3013   83.2801 H   0  0  0  0  0  0  0  0  0  0  0  0
  116.8040  123.8560   83.2801 H   0  0  0  0  0  0  0  0  0  0  0  0
  119.9453  123.5663   87.2303 H   0  0  0  0  0  0  0  0  0  0  0  0
  121.7985  122.1730   88.1607 H   0  0  0  0  0  0  0  0  0  0  0  0
  125.9969  121.8623   90.6630 H   0  0  0  0  0  0  0  0  0  0  0  0
  127.3115  122.4978   89.6166 H   0  0  0  0  0  0  0  0  0  0  0  0
  125.7002  123.2919   89.6166 H   0  0  0  0  0  0  0  0  0  0  0  0
  1  2  1  0
  2  3  2  0
  2  4  1  0
  4  5  1  0
  5  6  1  0
  6  7  1  0
  7  8  2  0
  8  9  1  0
  9 10  2  0
 10 11  1  0
 11 12  1  0
 12 13  1  0
 12 14  2  0
 10 15  1  0
 15 16  2  0
  5 17  1  0
 17 18  1  0
 17 19  2  0
 16  7  1  0
  1 20  1  0
  1 21  1  0
  1 22  1  0
  4 23  1  0
  5 24  1  0
  6 25  1  0
  6 26  1  0
  8 27  1  0
  9 28  1  0
 13 29  1  0
 13 30  1  0
 13 31  1  0
 15 32  1  0
 16 33  1  0
 18 34  1  0
 18 35  1  0
 18 36  1  0
M  END
>  <loss>  (1) 
0.5055625438690186

>  <score>  (1) 
2.6944539546966553

$$$$
WTEMYUWYDPNDCL-UHFFFAOYSA-N
     RDKit          3D

 36 36  0  0  0  0  0  0  0  0999 V2000
  126.6323  122.8683   84.1517 C   0  0  0  0  0  0  0  0  0  0  0  0
  125.9995  121.9513   85.1622 C   0  0  0  0  0  0  0  0  0  0  0  0
  125.4427  120.9060   84.8421 O   0  0  0  0  0  0  0  0  0  0  0  0
  126.1060  122.3748   86.4616 N   0  0  0  0  0  0  0  0  0  0  0  0
  125.0699  122.0873   87.4533 C   0  0  0  0  0  0  0  0  0  0  0  0
  123.9646  121.2029   86.8581 C   0  0  0  0  0  0  0  0  0  0  0  0
  122.8135  122.0000   86.2929 C   0  0  0  0  0  0  0  0  0  0  0  0
  122.8543  122.4484   84.9630 C   0  0  0  0  0  0  0  0  0  0  0  0
  121.8169  123.2249   84.4486 C   0  0  0  0  0  0  0  0  0  0  0  0
  120.7460  123.5595   85.2731 C   0  0  0  0  0  0  0  0  0  0  0  0
  119.6976  124.3156   84.7504 O   0  0  0  0  0  0  0  0  0  0  0  0
  118.7320  123.5335   84.1279 C   0  0  0  0  0  0  0  0  0  0  0  0
  117.4968  124.3620   83.9324 C   0  0  0  0  0  0  0  0  0  0  0  0
  118.8364  122.3638   83.7829 O   0  0  0  0  0  0  0  0  0  0  0  0
  120.6696  123.0997   86.5855 C   0  0  0  0  0  0  0  0  0  0  0  0
  121.7091  122.3232   87.0965 C   0  0  0  0  0  0  0  0  0  0  0  0
  125.7764  121.3704   88.6053 C   0  0  0  0  0  0  0  0  0  0  0  0
  126.3447  122.2275   89.7063 C   0  0  0  0  0  0  0  0  0  0  0  0
  125.9079  120.1423   88.6135 O   0  0  0  0  0  0  0  0  0  0  0  0
  127.1823  123.6653   84.6737 H   0  0  0  0  0  0  0  0  0  0  0  0
  127.3280  122.2951   83.5213 H   0  0  0  0  0  0  0  0  0  0  0  0
  125.8496  123.3153   83.5213 H   0  0  0  0  0  0  0  0  0  0  0  0
  126.9383  122.9101   86.7474 H   0  0  0  0  0  0  0  0  0  0  0  0
  124.5792  123.0110   87.7937 H   0  0  0  0  0  0  0  0  0  0  0  0
  124.3988  120.5937   86.0517 H   0  0  0  0  0  0  0  0  0  0  0  0
  123.5659  120.5805   87.6727 H   0  0  0  0  0  0  0  0  0  0  0  0
  123.7097  122.1856   84.3233 H   0  0  0  0  0  0  0  0  0  0  0  0
  121.8441  123.5690   83.4042 H   0  0  0  0  0  0  0  0  0  0  0  0
  117.0826  124.6398   84.9128 H   0  0  0  0  0  0  0  0  0  0  0  0
  117.7514  125.2727   83.3704 H   0  0  0  0  0  0  0  0  0  0  0  0
  116.7508  123.7809   83.3704 H   0  0  0  0  0  0  0  0  0  0  0  0
  119.7994  123.3462   87.2116 H   0  0  0  0  0  0  0  0  0  0  0  0
  121.6633  121.9623   88.1346 H   0  0  0  0  0  0  0  0  0  0  0  0
  126.0642  121.8044   90.6822 H   0  0  0  0  0  0  0  0  0  0  0  0
  127.4410  122.2557   89.6203 H   0  0  0  0  0  0  0  0  0  0  0  0
  125.9438  123.2483   89.6203 H   0  0  0  0  0  0  0  0  0  0  0  0
  1  2  1  0
  2  3  2  0
  2  4  1  0
  4  5  1  0
  5  6  1  0
  6  7  1  0
  7  8  2  0
  8  9  1  0
  9 10  2  0
 10 11  1  0
 11 12  1  0
 12 13  1  0
 12 14  2  0
 10 15  1  0
 15 16  2  0
  5 17  1  0
 17 18  1  0
 17 19  2  0
 16  7  1  0
  1 20  1  0
  1 21  1  0
  1 22  1  0
  4 23  1  0
  5 24  1  0
  6 25  1  0
  6 26  1  0
  8 27  1  0
  9 28  1  0
 13 29  1  0
 13 30  1  0
 13 31  1  0
 15 32  1  0
 16 33  1  0
 18 34  1  0
 18 35  1  0
 18 36  1  0
M  END
>  <loss>  (2) 
0.5094180107116699

>  <score>  (2) 
2.658630847930908

$$$$
WTEMYUWYDPNDCL-UHFFFAOYSA-N
     RDKit          3D

 36 36  0  0  0  0  0  0  0  0999 V2000
  126.5766  120.6409   84.1409 C   0  0  0  0  0  0  0  0  0  0  0  0
  126.0479  121.5958   85.1757 C   0  0  0  0  0  0  0  0  0  0  0  0
  125.6774  122.7309   84.8942 O   0  0  0  0  0  0  0  0  0  0  0  0
  126.0058  121.0897   86.4493 N   0  0  0  0  0  0  0  0  0  0  0  0
  125.1991  121.7129   87.4979 C   0  0  0  0  0  0  0  0  0  0  0  0
  123.7941  121.0973   87.5548 C   0  0  0  0  0  0  0  0  0  0  0  0
  122.7569  121.9176   86.8254 C   0  0  0  0  0  0  0  0  0  0  0  0
  121.7166  122.5414   87.5307 C   0  0  0  0  0  0  0  0  0  0  0  0
  120.7703  123.3137   86.8560 C   0  0  0  0  0  0  0  0  0  0  0  0
  120.8567  123.4440   85.4714 C   0  0  0  0  0  0  0  0  0  0  0  0
  119.9605  124.2513   84.7615 O   0  0  0  0  0  0  0  0  0  0  0  0
  118.8833  123.5870   84.1836 C   0  0  0  0  0  0  0  0  0  0  0  0
  118.3070  124.4567   83.1059 C   0  0  0  0  0  0  0  0  0  0  0  0
  118.4531  122.4804   84.4777 O   0  0  0  0  0  0  0  0  0  0  0  0
  121.8911  122.8465   84.7557 C   0  0  0  0  0  0  0  0  0  0  0  0
  122.8367  122.0769   85.4332 C   0  0  0  0  0  0  0  0  0  0  0  0
  125.9502  121.4706   88.8078 C   0  0  0  0  0  0  0  0  0  0  0  0
  126.7401  122.6226   89.3717 C   0  0  0  0  0  0  0  0  0  0  0  0
  125.9397  120.3673   89.3622 O   0  0  0  0  0  0  0  0  0  0  0  0
  127.0511  119.7838   84.6412 H   0  0  0  0  0  0  0  0  0  0  0  0
  125.7469  120.2851   83.5123 H   0  0  0  0  0  0  0  0  0  0  0  0
  127.3184  121.1553   83.5123 H   0  0  0  0  0  0  0  0  0  0  0  0
  126.5566  120.2487   86.6733 H   0  0  0  0  0  0  0  0  0  0  0  0
  125.0602  122.7870   87.3055 H   0  0  0  0  0  0  0  0  0  0  0  0
  123.8319  120.0964   87.0999 H   0  0  0  0  0  0  0  0  0  0  0  0
  123.4961  121.0584   88.6129 H   0  0  0  0  0  0  0  0  0  0  0  0
  121.6465  122.4210   88.6218 H   0  0  0  0  0  0  0  0  0  0  0  0
  119.9640  123.8148   87.4117 H   0  0  0  0  0  0  0  0  0  0  0  0
  117.7545  125.2904   83.5638 H   0  0  0  0  0  0  0  0  0  0  0  0
  119.1206  124.8548   82.4818 H   0  0  0  0  0  0  0  0  0  0  0  0
  117.6232  123.8626   82.4818 H   0  0  0  0  0  0  0  0  0  0  0  0
  121.9617  122.9802   83.6662 H   0  0  0  0  0  0  0  0  0  0  0  0
  123.6498  121.5919   84.8730 H   0  0  0  0  0  0  0  0  0  0  0  0
  126.7129  122.5829   90.4707 H   0  0  0  0  0  0  0  0  0  0  0  0
  127.7829  122.5552   89.0281 H   0  0  0  0  0  0  0  0  0  0  0  0
  126.3014  123.5711   89.0281 H   0  0  0  0  0  0  0  0  0  0  0  0
  1  2  1  0
  2  3  2  0
  2  4  1  0
  4  5  1  0
  5  6  1  0
  6  7  1  0
  7  8  2  0
  8  9  1  0
  9 10  2  0
 10 11  1  0
 11 12  1  0
 12 13  1  0
 12 14  2  0
 10 15  1  0
 15 16  2  0
  5 17  1  0
 17 18  1  0
 17 19  2  0
 16  7  1  0
  1 20  1  0
  1 21  1  0
  1 22  1  0
  4 23  1  0
  5 24  1  0
  6 25  1  0
  6 26  1  0
  8 27  1  0
  9 28  1  0
 13 29  1  0
 13 30  1  0
 13 31  1  0
 15 32  1  0
 16 33  1  0
 18 34  1  0
 18 35  1  0
 18 36  1  0
M  END
>  <loss>  (3) 
0.5516402125358582

>  <score>  (3) 
2.6917126178741455

$$$$
WTEMYUWYDPNDCL-UHFFFAOYSA-N
     RDKit          3D

 36 36  0  0  0  0  0  0  0  0999 V2000
  126.5806  122.6237   84.0333 C   0  0  0  0  0  0  0  0  0  0  0  0
  125.7974  121.8019   85.0203 C   0  0  0  0  0  0  0  0  0  0  0  0
  125.2752  120.7335   84.7191 O   0  0  0  0  0  0  0  0  0  0  0  0
  125.7396  122.3440   86.2842 N   0  0  0  0  0  0  0  0  0  0  0  0
  125.0259  121.6379   87.3471 C   0  0  0  0  0  0  0  0  0  0  0  0
  123.8588  122.4569   87.9119 C   0  0  0  0  0  0  0  0  0  0  0  0
  122.7128  122.5983   86.9370 C   0  0  0  0  0  0  0  0  0  0  0  0
  121.4731  121.9973   87.2073 C   0  0  0  0  0  0  0  0  0  0  0  0
  120.4165  122.1194   86.3043 C   0  0  0  0  0  0  0  0  0  0  0  0
  120.5991  122.8545   85.1365 C   0  0  0  0  0  0  0  0  0  0  0  0
  119.5414  122.9168   84.2257 O   0  0  0  0  0  0  0  0  0  0  0  0
  118.8346  124.1136   84.2519 C   0  0  0  0  0  0  0  0  0  0  0  0
  117.8439  124.1093   83.1255 C   0  0  0  0  0  0  0  0  0  0  0  0
  118.9685  125.0351   85.0453 O   0  0  0  0  0  0  0  0  0  0  0  0
  121.8269  123.4399   84.8369 C   0  0  0  0  0  0  0  0  0  0  0  0
  122.8810  123.3158   85.7426 C   0  0  0  0  0  0  0  0  0  0  0  0
  126.0345  121.3952   88.4718 C   0  0  0  0  0  0  0  0  0  0  0  0
  125.6804  120.3380   89.4833 C   0  0  0  0  0  0  0  0  0  0  0  0
  127.0760  122.0511   88.5621 O   0  0  0  0  0  0  0  0  0  0  0  0
  127.2410  123.3165   84.5754 H   0  0  0  0  0  0  0  0  0  0  0  0
  127.1869  121.9581   83.4014 H   0  0  0  0  0  0  0  0  0  0  0  0
  125.8867  123.1974   83.4014 H   0  0  0  0  0  0  0  0  0  0  0  0
  126.1982  123.2451   86.4808 H   0  0  0  0  0  0  0  0  0  0  0  0
  124.6068  120.7065   86.9387 H   0  0  0  0  0  0  0  0  0  0  0  0
  123.4876  121.9589   88.8198 H   0  0  0  0  0  0  0  0  0  0  0  0
  124.2374  123.4675   88.1247 H   0  0  0  0  0  0  0  0  0  0  0  0
  121.3339  121.4264   88.1372 H   0  0  0  0  0  0  0  0  0  0  0  0
  119.4489  121.6397   86.5132 H   0  0  0  0  0  0  0  0  0  0  0  0
  116.8230  124.1048   83.5351 H   0  0  0  0  0  0  0  0  0  0  0  0
  117.9871  125.0080   82.5077 H   0  0  0  0  0  0  0  0  0  0  0  0
  117.9950  123.2118   82.5077 H   0  0  0  0  0  0  0  0  0  0  0  0
  121.9641  123.9940   83.8966 H   0  0  0  0  0  0  0  0  0  0  0  0
  123.8510  123.7839   85.5189 H   0  0  0  0  0  0  0  0  0  0  0  0
  125.8155  120.7412   90.4977 H   0  0  0  0  0  0  0  0  0  0  0  0
  124.6319  120.0353   89.3456 H   0  0  0  0  0  0  0  0  0  0  0  0
  126.3352  119.4649   89.3456 H   0  0  0  0  0  0  0  0  0  0  0  0
  1  2  1  0
  2  3  2  0
  2  4  1  0
  4  5  1  0
  5  6  1  0
  6  7  1  0
  7  8  2  0
  8  9  1  0
  9 10  2  0
 10 11  1  0
 11 12  1  0
 12 13  1  0
 12 14  2  0
 10 15  1  0
 15 16  2  0
  5 17  1  0
 17 18  1  0
 17 19  2  0
 16  7  1  0
  1 20  1  0
  1 21  1  0
  1 22  1  0
  4 23  1  0
  5 24  1  0
  6 25  1  0
  6 26  1  0
  8 27  1  0
  9 28  1  0
 13 29  1  0
 13 30  1  0
 13 31  1  0
 15 32  1  0
 16 33  1  0
 18 34  1  0
 18 35  1  0
 18 36  1  0
M  END
>  <loss>  (4) 
0.5125852227210999

>  <score>  (4) 
2.4798474311828613

$$$$
WTEMYUWYDPNDCL-UHFFFAOYSA-N
     RDKit          3D

 36 36  0  0  0  0  0  0  0  0999 V2000
  126.5851  122.5727   83.9871 C   0  0  0  0  0  0  0  0  0  0  0  0
  125.8200  121.7699   85.0040 C   0  0  0  0  0  0  0  0  0  0  0  0
  125.2387  120.7290   84.7168 O   0  0  0  0  0  0  0  0  0  0  0  0
  125.8439  122.2991   86.2746 N   0  0  0  0  0  0  0  0  0  0  0  0
  125.0527  121.6820   87.3423 C   0  0  0  0  0  0  0  0  0  0  0  0
  123.9562  122.6416   87.8205 C   0  0  0  0  0  0  0  0  0  0  0  0
  122.7537  122.6629   86.9073 C   0  0  0  0  0  0  0  0  0  0  0  0
  121.5292  122.1268   87.3361 C   0  0  0  0  0  0  0  0  0  0  0  0
  120.4057  122.1870   86.5121 C   0  0  0  0  0  0  0  0  0  0  0  0
  120.5094  122.7972   85.2650 C   0  0  0  0  0  0  0  0  0  0  0  0
  119.3926  122.8330   84.4308 O   0  0  0  0  0  0  0  0  0  0  0  0
  118.9134  124.1223   84.2318 C   0  0  0  0  0  0  0  0  0  0  0  0
  117.9899  124.1137   83.0497 C   0  0  0  0  0  0  0  0  0  0  0  0
  119.1779  125.1198   84.8897 O   0  0  0  0  0  0  0  0  0  0  0  0
  121.7198  123.3122   84.8084 C   0  0  0  0  0  0  0  0  0  0  0  0
  122.8411  123.2500   85.6351 C   0  0  0  0  0  0  0  0  0  0  0  0
  126.0346  121.3863   88.4800 C   0  0  0  0  0  0  0  0  0  0  0  0
  125.6533  120.2986   89.4492 C   0  0  0  0  0  0  0  0  0  0  0  0
  127.1022  121.9990   88.5824 O   0  0  0  0  0  0  0  0  0  0  0  0
  127.2550  123.2758   84.5037 H   0  0  0  0  0  0  0  0  0  0  0  0
  127.1799  121.8950   83.3571 H   0  0  0  0  0  0  0  0  0  0  0  0
  125.8795  123.1342   83.3571 H   0  0  0  0  0  0  0  0  0  0  0  0
  126.4187  123.1300   86.4749 H   0  0  0  0  0  0  0  0  0  0  0  0
  124.5529  120.7665   86.9930 H   0  0  0  0  0  0  0  0  0  0  0  0
  123.6297  122.3295   88.8234 H   0  0  0  0  0  0  0  0  0  0  0  0
  124.3842  123.6550   87.8258 H   0  0  0  0  0  0  0  0  0  0  0  0
  121.4555  121.6564   88.3277 H   0  0  0  0  0  0  0  0  0  0  0  0
  119.4489  121.7575   86.8437 H   0  0  0  0  0  0  0  0  0  0  0  0
  116.9470  124.1039   83.3993 H   0  0  0  0  0  0  0  0  0  0  0  0
  118.1643  125.0135   82.4415 H   0  0  0  0  0  0  0  0  0  0  0  0
  118.1812  123.2173   82.4415 H   0  0  0  0  0  0  0  0  0  0  0  0
  121.7907  123.7628   83.8074 H   0  0  0  0  0  0  0  0  0  0  0  0
  123.7997  123.6633   85.2883 H   0  0  0  0  0  0  0  0  0  0  0  0
  125.7813  120.6637   90.4790 H   0  0  0  0  0  0  0  0  0  0  0  0
  124.6025  120.0159   89.2884 H   0  0  0  0  0  0  0  0  0  0  0  0
  126.2977  119.4217   89.2884 H   0  0  0  0  0  0  0  0  0  0  0  0
  1  2  1  0
  2  3  2  0
  2  4  1  0
  4  5  1  0
  5  6  1  0
  6  7  1  0
  7  8  2  0
  8  9  1  0
  9 10  2  0
 10 11  1  0
 11 12  1  0
 12 13  1  0
 12 14  2  0
 10 15  1  0
 15 16  2  0
  5 17  1  0
 17 18  1  0
 17 19  2  0
 16  7  1  0
  1 20  1  0
  1 21  1  0
  1 22  1  0
  4 23  1  0
  5 24  1  0
  6 25  1  0
  6 26  1  0
  8 27  1  0
  9 28  1  0
 13 29  1  0
 13 30  1  0
 13 31  1  0
 15 32  1  0
 16 33  1  0
 18 34  1  0
 18 35  1  0
 18 36  1  0
M  END
>  <loss>  (5) 
0.5126625299453735

>  <score>  (5) 
2.4614737033843994

$$$$
WTEMYUWYDPNDCL-UHFFFAOYSA-N
     RDKit          3D

 36 36  0  0  0  0  0  0  0  0999 V2000
  126.5787  120.6538   84.1452 C   0  0  0  0  0  0  0  0  0  0  0  0
  126.0485  121.6132   85.1752 C   0  0  0  0  0  0  0  0  0  0  0  0
  125.6635  122.7414   84.8858 O   0  0  0  0  0  0  0  0  0  0  0  0
  126.0226  121.1192   86.4539 N   0  0  0  0  0  0  0  0  0  0  0  0
  125.1993  121.7293   87.4972 C   0  0  0  0  0  0  0  0  0  0  0  0
  123.7988  121.1020   87.5346 C   0  0  0  0  0  0  0  0  0  0  0  0
  122.7627  121.9194   86.8004 C   0  0  0  0  0  0  0  0  0  0  0  0
  121.7189  122.5426   87.5012 C   0  0  0  0  0  0  0  0  0  0  0  0
  120.7737  123.3123   86.8221 C   0  0  0  0  0  0  0  0  0  0  0  0
  120.8646  123.4405   85.4376 C   0  0  0  0  0  0  0  0  0  0  0  0
  119.9694  124.2453   84.7235 O   0  0  0  0  0  0  0  0  0  0  0  0
  118.8702  123.5857   84.1828 C   0  0  0  0  0  0  0  0  0  0  0  0
  118.2815  124.4432   83.1019 C   0  0  0  0  0  0  0  0  0  0  0  0
  118.4315  122.4910   84.5075 O   0  0  0  0  0  0  0  0  0  0  0  0
  121.9023  122.8437   84.7264 C   0  0  0  0  0  0  0  0  0  0  0  0
  122.8469  122.0767   85.4082 C   0  0  0  0  0  0  0  0  0  0  0  0
  125.9377  121.4850   88.8140 C   0  0  0  0  0  0  0  0  0  0  0  0
  126.7164  122.6382   89.3908 C   0  0  0  0  0  0  0  0  0  0  0  0
  125.9263  120.3793   89.3637 O   0  0  0  0  0  0  0  0  0  0  0  0
  127.0514  119.7984   84.6498 H   0  0  0  0  0  0  0  0  0  0  0  0
  125.7501  120.2963   83.5162 H   0  0  0  0  0  0  0  0  0  0  0  0
  127.3223  121.1652   83.5162 H   0  0  0  0  0  0  0  0  0  0  0  0
  126.5981  120.2970   86.6858 H   0  0  0  0  0  0  0  0  0  0  0  0
  125.0538  122.8034   87.3098 H   0  0  0  0  0  0  0  0  0  0  0  0
  123.8495  120.1050   87.0726 H   0  0  0  0  0  0  0  0  0  0  0  0
  123.4900  121.0526   88.5892 H   0  0  0  0  0  0  0  0  0  0  0  0
  121.6454  122.4237   88.5923 H   0  0  0  0  0  0  0  0  0  0  0  0
  119.9646  123.8128   87.3743 H   0  0  0  0  0  0  0  0  0  0  0  0
  117.7147  125.2689   83.5568 H   0  0  0  0  0  0  0  0  0  0  0  0
  119.0896  124.8531   82.4782 H   0  0  0  0  0  0  0  0  0  0  0  0
  117.6086  123.8365   82.4782 H   0  0  0  0  0  0  0  0  0  0  0  0
  121.9764  122.9758   83.6369 H   0  0  0  0  0  0  0  0  0  0  0  0
  123.6627  121.5922   84.8516 H   0  0  0  0  0  0  0  0  0  0  0  0
  126.6837  122.5897   90.4892 H   0  0  0  0  0  0  0  0  0  0  0  0
  127.7615  122.5808   89.0522 H   0  0  0  0  0  0  0  0  0  0  0  0
  126.2728  123.5861   89.0522 H   0  0  0  0  0  0  0  0  0  0  0  0
  1  2  1  0
  2  3  2  0
  2  4  1  0
  4  5  1  0
  5  6  1  0
  6  7  1  0
  7  8  2  0
  8  9  1  0
  9 10  2  0
 10 11  1  0
 11 12  1  0
 12 13  1  0
 12 14  2  0
 10 15  1  0
 15 16  2  0
  5 17  1  0
 17 18  1  0
 17 19  2  0
 16  7  1  0
  1 20  1  0
  1 21  1  0
  1 22  1  0
  4 23  1  0
  5 24  1  0
  6 25  1  0
  6 26  1  0
  8 27  1  0
  9 28  1  0
 13 29  1  0
 13 30  1  0
 13 31  1  0
 15 32  1  0
 16 33  1  0
 18 34  1  0
 18 35  1  0
 18 36  1  0
M  END
>  <loss>  (6) 
0.557019829750061

>  <score>  (6) 
2.6710827350616455

$$$$
WTEMYUWYDPNDCL-UHFFFAOYSA-N
     RDKit          3D

 36 36  0  0  0  0  0  0  0  0999 V2000
  126.5803  122.5740   84.0003 C   0  0  0  0  0  0  0  0  0  0  0  0
  125.8114  121.7744   85.0168 C   0  0  0  0  0  0  0  0  0  0  0  0
  125.2376  120.7287   84.7325 O   0  0  0  0  0  0  0  0  0  0  0  0
  125.8228  122.3126   86.2838 N   0  0  0  0  0  0  0  0  0  0  0  0
  125.0516  121.6805   87.3574 C   0  0  0  0  0  0  0  0  0  0  0  0
  123.9398  122.6184   87.8430 C   0  0  0  0  0  0  0  0  0  0  0  0
  122.7479  122.6476   86.9162 C   0  0  0  0  0  0  0  0  0  0  0  0
  121.5196  122.1046   87.3248 C   0  0  0  0  0  0  0  0  0  0  0  0
  120.4056  122.1719   86.4884 C   0  0  0  0  0  0  0  0  0  0  0  0
  120.5227  122.7959   85.2493 C   0  0  0  0  0  0  0  0  0  0  0  0
  119.4156  122.8388   84.4026 O   0  0  0  0  0  0  0  0  0  0  0  0
  118.9116  124.1243   84.2442 C   0  0  0  0  0  0  0  0  0  0  0  0
  117.9890  124.1354   83.0614 C   0  0  0  0  0  0  0  0  0  0  0  0
  119.1565  125.1052   84.9337 O   0  0  0  0  0  0  0  0  0  0  0  0
  121.7373  123.3180   84.8126 C   0  0  0  0  0  0  0  0  0  0  0  0
  122.8490  123.2487   85.6515 C   0  0  0  0  0  0  0  0  0  0  0  0
  126.0472  121.4048   88.4881 C   0  0  0  0  0  0  0  0  0  0  0  0
  125.6876  120.3200   89.4689 C   0  0  0  0  0  0  0  0  0  0  0  0
  127.1085  122.0306   88.5761 O   0  0  0  0  0  0  0  0  0  0  0  0
  127.2533  123.2739   84.5172 H   0  0  0  0  0  0  0  0  0  0  0  0
  127.1722  121.8938   83.3703 H   0  0  0  0  0  0  0  0  0  0  0  0
  125.8774  123.1388   83.3703 H   0  0  0  0  0  0  0  0  0  0  0  0
  126.3742  123.1608   86.4774 H   0  0  0  0  0  0  0  0  0  0  0  0
  124.5675  120.7551   87.0119 H   0  0  0  0  0  0  0  0  0  0  0  0
  123.6047  122.2812   88.8350 H   0  0  0  0  0  0  0  0  0  0  0  0
  124.3573  123.6356   87.8755 H   0  0  0  0  0  0  0  0  0  0  0  0
  121.4352  121.6232   88.3102 H   0  0  0  0  0  0  0  0  0  0  0  0
  119.4458  121.7371   86.8040 H   0  0  0  0  0  0  0  0  0  0  0  0
  116.9458  124.1479   83.4102 H   0  0  0  0  0  0  0  0  0  0  0  0
  118.1831  125.0312   82.4534 H   0  0  0  0  0  0  0  0  0  0  0  0
  118.1615  123.2351   82.4534 H   0  0  0  0  0  0  0  0  0  0  0  0
  121.8190  123.7796   83.8175 H   0  0  0  0  0  0  0  0  0  0  0  0
  123.8108  123.6675   85.3205 H   0  0  0  0  0  0  0  0  0  0  0  0
  125.8126  120.6970   90.4947 H   0  0  0  0  0  0  0  0  0  0  0  0
  124.6412  120.0180   89.3142 H   0  0  0  0  0  0  0  0  0  0  0  0
  126.3463  119.4527   89.3142 H   0  0  0  0  0  0  0  0  0  0  0  0
  1  2  1  0
  2  3  2  0
  2  4  1  0
  4  5  1  0
  5  6  1  0
  6  7  1  0
  7  8  2  0
  8  9  1  0
  9 10  2  0
 10 11  1  0
 11 12  1  0
 12 13  1  0
 12 14  2  0
 10 15  1  0
 15 16  2  0
  5 17  1  0
 17 18  1  0
 17 19  2  0
 16  7  1  0
  1 20  1  0
  1 21  1  0
  1 22  1  0
  4 23  1  0
  5 24  1  0
  6 25  1  0
  6 26  1  0
  8 27  1  0
  9 28  1  0
 13 29  1  0
 13 30  1  0
 13 31  1  0
 15 32  1  0
 16 33  1  0
 18 34  1  0
 18 35  1  0
 18 36  1  0
M  END
>  <loss>  (7) 
0.5173645615577698

>  <score>  (7) 
2.4663937091827393

$$$$
WTEMYUWYDPNDCL-UHFFFAOYSA-N
     RDKit          3D

 36 36  0  0  0  0  0  0  0  0999 V2000
  126.5579  122.6045   84.0026 C   0  0  0  0  0  0  0  0  0  0  0  0
  125.7886  121.7821   85.0001 C   0  0  0  0  0  0  0  0  0  0  0  0
  125.2728  120.7079   84.7089 O   0  0  0  0  0  0  0  0  0  0  0  0
  125.7360  122.3310   86.2613 N   0  0  0  0  0  0  0  0  0  0  0  0
  125.0295  121.6289   87.3316 C   0  0  0  0  0  0  0  0  0  0  0  0
  123.8534  122.4415   87.8872 C   0  0  0  0  0  0  0  0  0  0  0  0
  122.7259  122.6000   86.8935 C   0  0  0  0  0  0  0  0  0  0  0  0
  121.5099  121.9254   87.0867 C   0  0  0  0  0  0  0  0  0  0  0  0
  120.4709  122.0636   86.1659 C   0  0  0  0  0  0  0  0  0  0  0  0
  120.6467  122.8878   85.0581 C   0  0  0  0  0  0  0  0  0  0  0  0
  119.6095  122.9668   84.1252 O   0  0  0  0  0  0  0  0  0  0  0  0
  118.7917  124.0812   84.2732 C   0  0  0  0  0  0  0  0  0  0  0  0
  117.7982  124.0986   83.1494 C   0  0  0  0  0  0  0  0  0  0  0  0
  118.8424  124.9244   85.1582 O   0  0  0  0  0  0  0  0  0  0  0  0
  121.8523  123.5483   84.8342 C   0  0  0  0  0  0  0  0  0  0  0  0
  122.8888  123.4079   85.7576 C   0  0  0  0  0  0  0  0  0  0  0  0
  126.0402  121.4093   88.4592 C   0  0  0  0  0  0  0  0  0  0  0  0
  125.6790  120.3871   89.5036 C   0  0  0  0  0  0  0  0  0  0  0  0
  127.0891  122.0561   88.5254 O   0  0  0  0  0  0  0  0  0  0  0  0
  127.2152  123.3071   84.5358 H   0  0  0  0  0  0  0  0  0  0  0  0
  127.1664  121.9402   83.3713 H   0  0  0  0  0  0  0  0  0  0  0  0
  125.8547  123.1674   83.3713 H   0  0  0  0  0  0  0  0  0  0  0  0
  126.1934  123.2342   86.4506 H   0  0  0  0  0  0  0  0  0  0  0  0
  124.6205  120.6887   86.9333 H   0  0  0  0  0  0  0  0  0  0  0  0
  123.4647  121.9305   88.7804 H   0  0  0  0  0  0  0  0  0  0  0  0
  124.2298  123.4480   88.1223 H   0  0  0  0  0  0  0  0  0  0  0  0
  121.3754  121.2838   87.9700 H   0  0  0  0  0  0  0  0  0  0  0  0
  119.5223  121.5266   86.3138 H   0  0  0  0  0  0  0  0  0  0  0  0
  116.7785  124.1163   83.5617 H   0  0  0  0  0  0  0  0  0  0  0  0
  117.9594  124.9940   82.5312 H   0  0  0  0  0  0  0  0  0  0  0  0
  117.9281  123.1980   82.5312 H   0  0  0  0  0  0  0  0  0  0  0  0
  121.9858  124.1739   83.9393 H   0  0  0  0  0  0  0  0  0  0  0  0
  123.8407  123.9344   85.5940 H   0  0  0  0  0  0  0  0  0  0  0  0
  125.8307  120.8165   90.5049 H   0  0  0  0  0  0  0  0  0  0  0  0
  124.6244  120.0981   89.3845 H   0  0  0  0  0  0  0  0  0  0  0  0
  126.3181  119.4997   89.3845 H   0  0  0  0  0  0  0  0  0  0  0  0
  1  2  1  0
  2  3  2  0
  2  4  1  0
  4  5  1  0
  5  6  1  0
  6  7  1  0
  7  8  2  0
  8  9  1  0
  9 10  2  0
 10 11  1  0
 11 12  1  0
 12 13  1  0
 12 14  2  0
 10 15  1  0
 15 16  2  0
  5 17  1  0
 17 18  1  0
 17 19  2  0
 16  7  1  0
  1 20  1  0
  1 21  1  0
  1 22  1  0
  4 23  1  0
  5 24  1  0
  6 25  1  0
  6 26  1  0
  8 27  1  0
  9 28  1  0
 13 29  1  0
 13 30  1  0
 13 31  1  0
 15 32  1  0
 16 33  1  0
 18 34  1  0
 18 35  1  0
 18 36  1  0
M  END
>  <loss>  (8) 
0.5170943140983582

>  <score>  (8) 
2.4212515354156494

$$$$
WTEMYUWYDPNDCL-UHFFFAOYSA-N
     RDKit          3D

 36 36  0  0  0  0  0  0  0  0999 V2000
  126.4340  120.1098   84.6229 C   0  0  0  0  0  0  0  0  0  0  0  0
  125.8320  121.2661   85.3737 C   0  0  0  0  0  0  0  0  0  0  0  0
  125.8504  122.4134   84.9398 O   0  0  0  0  0  0  0  0  0  0  0  0
  125.2836  120.9242   86.5890 N   0  0  0  0  0  0  0  0  0  0  0  0
  125.1850  121.9249   87.6503 C   0  0  0  0  0  0  0  0  0  0  0  0
  123.7600  122.0531   88.2027 C   0  0  0  0  0  0  0  0  0  0  0  0
  122.7343  122.3275   87.1274 C   0  0  0  0  0  0  0  0  0  0  0  0
  121.4662  121.7292   87.1864 C   0  0  0  0  0  0  0  0  0  0  0  0
  120.5209  121.9740   86.1898 C   0  0  0  0  0  0  0  0  0  0  0  0
  120.8442  122.8306   85.1401 C   0  0  0  0  0  0  0  0  0  0  0  0
  119.9380  123.0537   84.1001 O   0  0  0  0  0  0  0  0  0  0  0  0
  119.1228  124.1652   84.2807 C   0  0  0  0  0  0  0  0  0  0  0  0
  118.0536  124.1506   83.2286 C   0  0  0  0  0  0  0  0  0  0  0  0
  119.2302  125.0305   85.1389 O   0  0  0  0  0  0  0  0  0  0  0  0
  122.1033  123.4170   85.0496 C   0  0  0  0  0  0  0  0  0  0  0  0
  123.0460  123.1693   86.0479 C   0  0  0  0  0  0  0  0  0  0  0  0
  126.1022  121.4601   88.7834 C   0  0  0  0  0  0  0  0  0  0  0  0
  127.0867  122.4673   89.3149 C   0  0  0  0  0  0  0  0  0  0  0  0
  126.0229  120.3235   89.2575 O   0  0  0  0  0  0  0  0  0  0  0  0
  126.8197  119.3689   85.3386 H   0  0  0  0  0  0  0  0  0  0  0  0
  125.6646  119.6428   83.9905 H   0  0  0  0  0  0  0  0  0  0  0  0
  127.2579  120.4723   83.9905 H   0  0  0  0  0  0  0  0  0  0  0  0
  124.9434  119.9655   86.7503 H   0  0  0  0  0  0  0  0  0  0  0  0
  125.4695  122.9066   87.2437 H   0  0  0  0  0  0  0  0  0  0  0  0
  123.4943  121.1136   88.7095 H   0  0  0  0  0  0  0  0  0  0  0  0
  123.7500  122.9085   88.8942 H   0  0  0  0  0  0  0  0  0  0  0  0
  121.2156  121.0623   88.0245 H   0  0  0  0  0  0  0  0  0  0  0  0
  119.5312  121.4958   86.2326 H   0  0  0  0  0  0  0  0  0  0  0  0
  117.0649  124.1371   83.7107 H   0  0  0  0  0  0  0  0  0  0  0  0
  118.1436  125.0501   82.6018 H   0  0  0  0  0  0  0  0  0  0  0  0
  118.1681  123.2540   82.6018 H   0  0  0  0  0  0  0  0  0  0  0  0
  122.3527  124.0690   84.1995 H   0  0  0  0  0  0  0  0  0  0  0  0
  124.0400  123.6368   85.9889 H   0  0  0  0  0  0  0  0  0  0  0  0
  127.0705  122.4507   90.4147 H   0  0  0  0  0  0  0  0  0  0  0  0
  128.0967  122.2158   88.9593 H   0  0  0  0  0  0  0  0  0  0  0  0
  126.8121  123.4714   88.9593 H   0  0  0  0  0  0  0  0  0  0  0  0
  1  2  1  0
  2  3  2  0
  2  4  1  0
  4  5  1  0
  5  6  1  0
  6  7  1  0
  7  8  2  0
  8  9  1  0
  9 10  2  0
 10 11  1  0
 11 12  1  0
 12 13  1  0
 12 14  2  0
 10 15  1  0
 15 16  2  0
  5 17  1  0
 17 18  1  0
 17 19  2  0
 16  7  1  0
  1 20  1  0
  1 21  1  0
  1 22  1  0
  4 23  1  0
  5 24  1  0
  6 25  1  0
  6 26  1  0
  8 27  1  0
  9 28  1  0
 13 29  1  0
 13 30  1  0
 13 31  1  0
 15 32  1  0
 16 33  1  0
 18 34  1  0
 18 35  1  0
 18 36  1  0
M  END
>  <loss>  (9) 
0.5668802857398987

>  <score>  (9) 
2.3422133922576904

$$$$
WTEMYUWYDPNDCL-UHFFFAOYSA-N
     RDKit          3D

 36 36  0  0  0  0  0  0  0  0999 V2000
  126.4417  120.1466   84.5681 C   0  0  0  0  0  0  0  0  0  0  0  0
  125.8364  121.2933   85.3308 C   0  0  0  0  0  0  0  0  0  0  0  0
  125.8505  122.4449   84.9083 O   0  0  0  0  0  0  0  0  0  0  0  0
  125.2902  120.9375   86.5431 N   0  0  0  0  0  0  0  0  0  0  0  0
  125.1865  121.9281   87.6135 C   0  0  0  0  0  0  0  0  0  0  0  0
  123.7542  122.0684   88.1436 C   0  0  0  0  0  0  0  0  0  0  0  0
  122.7499  122.3661   87.0543 C   0  0  0  0  0  0  0  0  0  0  0  0
  121.5681  121.6159   86.9536 C   0  0  0  0  0  0  0  0  0  0  0  0
  120.6439  121.8831   85.9431 C   0  0  0  0  0  0  0  0  0  0  0  0
  120.8998  122.9129   85.0410 C   0  0  0  0  0  0  0  0  0  0  0  0
  120.0191  123.1698   83.9871 O   0  0  0  0  0  0  0  0  0  0  0  0
  118.9896  124.0488   84.3035 C   0  0  0  0  0  0  0  0  0  0  0  0
  118.0501  124.1256   83.1366 C   0  0  0  0  0  0  0  0  0  0  0  0
  118.8435  124.6735   85.3453 O   0  0  0  0  0  0  0  0  0  0  0  0
  122.0756  123.6548   85.1083 C   0  0  0  0  0  0  0  0  0  0  0  0
  122.9976  123.3843   86.1200 C   0  0  0  0  0  0  0  0  0  0  0  0
  126.0787  121.4397   88.7564 C   0  0  0  0  0  0  0  0  0  0  0  0
  127.0560  122.4333   89.3254 C   0  0  0  0  0  0  0  0  0  0  0  0
  125.9856  120.2953   89.2088 O   0  0  0  0  0  0  0  0  0  0  0  0
  126.8346  119.4021   85.2761 H   0  0  0  0  0  0  0  0  0  0  0  0
  125.6722  119.6804   83.9352 H   0  0  0  0  0  0  0  0  0  0  0  0
  127.2607  120.5189   83.9352 H   0  0  0  0  0  0  0  0  0  0  0  0
  124.9554  119.9755   86.6959 H   0  0  0  0  0  0  0  0  0  0  0  0
  125.4900  122.9103   87.2222 H   0  0  0  0  0  0  0  0  0  0  0  0
  123.4687  121.1274   88.6364 H   0  0  0  0  0  0  0  0  0  0  0  0
  123.7431  122.9171   88.8433 H   0  0  0  0  0  0  0  0  0  0  0  0
  121.3690  120.8112   87.6767 H   0  0  0  0  0  0  0  0  0  0  0  0
  119.7232  121.2870   85.8599 H   0  0  0  0  0  0  0  0  0  0  0  0
  117.0164  124.2102   83.5031 H   0  0  0  0  0  0  0  0  0  0  0  0
  118.2956  125.0067   82.5255 H   0  0  0  0  0  0  0  0  0  0  0  0
  118.1493  123.2164   82.5255 H   0  0  0  0  0  0  0  0  0  0  0  0
  122.2760  124.4465   84.3712 H   0  0  0  0  0  0  0  0  0  0  0  0
  123.9247  123.9727   86.1860 H   0  0  0  0  0  0  0  0  0  0  0  0
  127.0192  122.3959   90.4242 H   0  0  0  0  0  0  0  0  0  0  0  0
  128.0718  122.1853   88.9839 H   0  0  0  0  0  0  0  0  0  0  0  0
  126.7912  123.4449   88.9839 H   0  0  0  0  0  0  0  0  0  0  0  0
  1  2  1  0
  2  3  2  0
  2  4  1  0
  4  5  1  0
  5  6  1  0
  6  7  1  0
  7  8  2  0
  8  9  1  0
  9 10  2  0
 10 11  1  0
 11 12  1  0
 12 13  1  0
 12 14  2  0
 10 15  1  0
 15 16  2  0
  5 17  1  0
 17 18  1  0
 17 19  2  0
 16  7  1  0
  1 20  1  0
  1 21  1  0
  1 22  1  0
  4 23  1  0
  5 24  1  0
  6 25  1  0
  6 26  1  0
  8 27  1  0
  9 28  1  0
 13 29  1  0
 13 30  1  0
 13 31  1  0
 15 32  1  0
 16 33  1  0
 18 34  1  0
 18 35  1  0
 18 36  1  0
M  END
>  <loss>  (10) 
0.5698851943016052

>  <score>  (10) 
2.2650563716888428

$$$$
WTEMYUWYDPNDCL-UHFFFAOYSA-N
     RDKit          3D

 36 36  0  0  0  0  0  0  0  0999 V2000
  128.2829  122.2371   87.3507 C   0  0  0  0  0  0  0  0  0  0  0  0
  127.0502  121.4172   87.0841 C   0  0  0  0  0  0  0  0  0  0  0  0
  126.5638  121.3059   85.9634 O   0  0  0  0  0  0  0  0  0  0  0  0
  126.5125  120.8275   88.2056 N   0  0  0  0  0  0  0  0  0  0  0  0
  125.1747  121.2070   88.6571 C   0  0  0  0  0  0  0  0  0  0  0  0
  124.0677  120.5309   87.8389 C   0  0  0  0  0  0  0  0  0  0  0  0
  123.3834  121.4770   86.8795 C   0  0  0  0  0  0  0  0  0  0  0  0
  123.8863  121.6593   85.5821 C   0  0  0  0  0  0  0  0  0  0  0  0
  123.2614  122.5392   84.6978 C   0  0  0  0  0  0  0  0  0  0  0  0
  122.1230  123.2267   85.1118 C   0  0  0  0  0  0  0  0  0  0  0  0
  121.5063  124.1537   84.2675 O   0  0  0  0  0  0  0  0  0  0  0  0
  120.1266  124.0114   84.1728 C   0  0  0  0  0  0  0  0  0  0  0  0
  119.7644  123.8068   82.7315 C   0  0  0  0  0  0  0  0  0  0  0  0
  119.3144  124.0445   85.0871 O   0  0  0  0  0  0  0  0  0  0  0  0
  121.6201  123.0784   86.4012 C   0  0  0  0  0  0  0  0  0  0  0  0
  122.2481  122.1978   87.2826 C   0  0  0  0  0  0  0  0  0  0  0  0
  125.0509  120.7460   90.1108 C   0  0  0  0  0  0  0  0  0  0  0  0
  125.5594  121.6905   91.1670 C   0  0  0  0  0  0  0  0  0  0  0  0
  124.5360  119.6643   90.4068 O   0  0  0  0  0  0  0  0  0  0  0  0
  128.4304  122.3351   88.4363 H   0  0  0  0  0  0  0  0  0  0  0  0
  129.1573  121.7399   86.9053 H   0  0  0  0  0  0  0  0  0  0  0  0
  128.1626  123.2357   86.9053 H   0  0  0  0  0  0  0  0  0  0  0  0
  127.0515  120.1204   88.7257 H   0  0  0  0  0  0  0  0  0  0  0  0
  125.0528  122.2939   88.5401 H   0  0  0  0  0  0  0  0  0  0  0  0
  124.5117  119.7064   87.2618 H   0  0  0  0  0  0  0  0  0  0  0  0
  123.3065  120.1717   88.5472 H   0  0  0  0  0  0  0  0  0  0  0  0
  124.7797  121.1044   85.2599 H   0  0  0  0  0  0  0  0  0  0  0  0
  123.6634  122.6884   83.6848 H   0  0  0  0  0  0  0  0  0  0  0  0
  118.8083  123.2668   82.6668 H   0  0  0  0  0  0  0  0  0  0  0  0
  119.6680  124.7839   82.2354 H   0  0  0  0  0  0  0  0  0  0  0  0
  120.5513  123.2198   82.2354 H   0  0  0  0  0  0  0  0  0  0  0  0
  120.7365  123.6496   86.7220 H   0  0  0  0  0  0  0  0  0  0  0  0
  121.8510  122.0675   88.3002 H   0  0  0  0  0  0  0  0  0  0  0  0
  125.3383  121.2798   92.1632 H   0  0  0  0  0  0  0  0  0  0  0  0
  126.6465  121.8151   91.0548 H   0  0  0  0  0  0  0  0  0  0  0  0
  125.0649  122.6667   91.0548 H   0  0  0  0  0  0  0  0  0  0  0  0
  1  2  1  0
  2  3  2  0
  2  4  1  0
  4  5  1  0
  5  6  1  0
  6  7  1  0
  7  8  2  0
  8  9  1  0
  9 10  2  0
 10 11  1  0
 11 12  1  0
 12 13  1  0
 12 14  2  0
 10 15  1  0
 15 16  2  0
  5 17  1  0
 17 18  1  0
 17 19  2  0
 16  7  1  0
  1 20  1  0
  1 21  1  0
  1 22  1  0
  4 23  1  0
  5 24  1  0
  6 25  1  0
  6 26  1  0
  8 27  1  0
  9 28  1  0
 13 29  1  0
 13 30  1  0
 13 31  1  0
 15 32  1  0
 16 33  1  0
 18 34  1  0
 18 35  1  0
 18 36  1  0
M  END
>  <loss>  (11) 
0.6353305578231812

>  <score>  (11) 
2.2638659477233887

$$$$
WTEMYUWYDPNDCL-UHFFFAOYSA-N
     RDKit          3D

 36 36  0  0  0  0  0  0  0  0999 V2000
  128.3102  122.2719   87.3461 C   0  0  0  0  0  0  0  0  0  0  0  0
  127.0735  121.4449   87.1247 C   0  0  0  0  0  0  0  0  0  0  0  0
  126.5928  121.2669   86.0102 O   0  0  0  0  0  0  0  0  0  0  0  0
  126.5393  120.9023   88.2649 N   0  0  0  0  0  0  0  0  0  0  0  0
  125.1753  121.2069   88.6952 C   0  0  0  0  0  0  0  0  0  0  0  0
  124.1433  120.5010   87.8047 C   0  0  0  0  0  0  0  0  0  0  0  0
  123.4238  121.4431   86.8690 C   0  0  0  0  0  0  0  0  0  0  0  0
  122.2680  122.1193   87.2883 C   0  0  0  0  0  0  0  0  0  0  0  0
  121.6159  123.0030   86.4276 C   0  0  0  0  0  0  0  0  0  0  0  0
  122.1124  123.1933   85.1396 C   0  0  0  0  0  0  0  0  0  0  0  0
  121.5207  124.1093   84.2622 O   0  0  0  0  0  0  0  0  0  0  0  0
  120.1342  124.0408   84.1691 C   0  0  0  0  0  0  0  0  0  0  0  0
  119.7611  123.8257   82.7323 C   0  0  0  0  0  0  0  0  0  0  0  0
  119.3264  124.1337   85.0828 O   0  0  0  0  0  0  0  0  0  0  0  0
  123.2673  122.5444   84.7106 C   0  0  0  0  0  0  0  0  0  0  0  0
  123.9182  121.6632   85.5740 C   0  0  0  0  0  0  0  0  0  0  0  0
  125.0696  120.7169   90.1400 C   0  0  0  0  0  0  0  0  0  0  0  0
  125.6075  121.6239   91.2157 C   0  0  0  0  0  0  0  0  0  0  0  0
  124.5961  119.6093   90.4119 O   0  0  0  0  0  0  0  0  0  0  0  0
  128.4848  122.3887   88.4258 H   0  0  0  0  0  0  0  0  0  0  0  0
  129.1744  121.7694   86.8872 H   0  0  0  0  0  0  0  0  0  0  0  0
  128.1758  123.2626   86.8872 H   0  0  0  0  0  0  0  0  0  0  0  0
  127.1137  120.2635   88.8331 H   0  0  0  0  0  0  0  0  0  0  0  0
  124.9668  122.2842   88.6186 H   0  0  0  0  0  0  0  0  0  0  0  0
  124.6622  119.7396   87.2038 H   0  0  0  0  0  0  0  0  0  0  0  0
  123.3867  120.0574   88.4685 H   0  0  0  0  0  0  0  0  0  0  0  0
  121.8737  121.9518   88.3014 H   0  0  0  0  0  0  0  0  0  0  0  0
  120.7187  123.5441   86.7625 H   0  0  0  0  0  0  0  0  0  0  0  0
  118.8093  123.2769   82.6788 H   0  0  0  0  0  0  0  0  0  0  0  0
  119.6516  124.7993   82.2322 H   0  0  0  0  0  0  0  0  0  0  0  0
  120.5488  123.2431   82.2322 H   0  0  0  0  0  0  0  0  0  0  0  0
  123.6627  122.7250   83.7001 H   0  0  0  0  0  0  0  0  0  0  0  0
  124.8243  121.1378   85.2379 H   0  0  0  0  0  0  0  0  0  0  0  0
  125.3606  121.2077   92.2036 H   0  0  0  0  0  0  0  0  0  0  0  0
  126.6998  121.7051   91.1146 H   0  0  0  0  0  0  0  0  0  0  0  0
  125.1547  122.6213   91.1146 H   0  0  0  0  0  0  0  0  0  0  0  0
  1  2  1  0
  2  3  2  0
  2  4  1  0
  4  5  1  0
  5  6  1  0
  6  7  1  0
  7  8  2  0
  8  9  1  0
  9 10  2  0
 10 11  1  0
 11 12  1  0
 12 13  1  0
 12 14  2  0
 10 15  1  0
 15 16  2  0
  5 17  1  0
 17 18  1  0
 17 19  2  0
 16  7  1  0
  1 20  1  0
  1 21  1  0
  1 22  1  0
  4 23  1  0
  5 24  1  0
  6 25  1  0
  6 26  1  0
  8 27  1  0
  9 28  1  0
 13 29  1  0
 13 30  1  0
 13 31  1  0
 15 32  1  0
 16 33  1  0
 18 34  1  0
 18 35  1  0
 18 36  1  0
M  END
>  <loss>  (12) 
0.6389545798301697

>  <score>  (12) 
2.2691242694854736

$$$$
WTEMYUWYDPNDCL-UHFFFAOYSA-N
     RDKit          3D

 36 36  0  0  0  0  0  0  0  0999 V2000
  128.2210  121.8790   86.6854 C   0  0  0  0  0  0  0  0  0  0  0  0
  126.9303  121.1534   86.4183 C   0  0  0  0  0  0  0  0  0  0  0  0
  126.4733  121.0203   85.2882 O   0  0  0  0  0  0  0  0  0  0  0  0
  126.3237  120.6475   87.5458 N   0  0  0  0  0  0  0  0  0  0  0  0
  124.9705  121.0774   87.9076 C   0  0  0  0  0  0  0  0  0  0  0  0
  124.7281  122.5227   87.4556 C   0  0  0  0  0  0  0  0  0  0  0  0
  123.6818  122.6327   86.3722 C   0  0  0  0  0  0  0  0  0  0  0  0
  122.3412  122.3210   86.6481 C   0  0  0  0  0  0  0  0  0  0  0  0
  121.3660  122.4664   85.6618 C   0  0  0  0  0  0  0  0  0  0  0  0
  121.7355  122.9371   84.4047 C   0  0  0  0  0  0  0  0  0  0  0  0
  120.7645  123.0564   83.4111 O   0  0  0  0  0  0  0  0  0  0  0  0
  119.7804  123.9838   83.7321 C   0  0  0  0  0  0  0  0  0  0  0  0
  118.9491  124.2433   82.5106 C   0  0  0  0  0  0  0  0  0  0  0  0
  119.5935  124.5189   84.8167 O   0  0  0  0  0  0  0  0  0  0  0  0
  123.0629  123.2273   84.1008 C   0  0  0  0  0  0  0  0  0  0  0  0
  124.0353  123.0807   85.0895 C   0  0  0  0  0  0  0  0  0  0  0  0
  124.8878  120.9758   89.4335 C   0  0  0  0  0  0  0  0  0  0  0  0
  124.4874  119.6439   90.0112 C   0  0  0  0  0  0  0  0  0  0  0  0
  125.1602  121.9391   90.1570 O   0  0  0  0  0  0  0  0  0  0  0  0
  128.3750  121.9656   87.7712 H   0  0  0  0  0  0  0  0  0  0  0  0
  129.0559  121.3181   86.2402 H   0  0  0  0  0  0  0  0  0  0  0  0
  128.1757  122.8839   86.2402 H   0  0  0  0  0  0  0  0  0  0  0  0
  126.8217  119.9658   88.1358 H   0  0  0  0  0  0  0  0  0  0  0  0
  124.2076  120.4527   87.4200 H   0  0  0  0  0  0  0  0  0  0  0  0
  124.3970  123.1110   88.3241 H   0  0  0  0  0  0  0  0  0  0  0  0
  125.6737  122.9014   87.0405 H   0  0  0  0  0  0  0  0  0  0  0  0
  122.0582  121.9601   87.6479 H   0  0  0  0  0  0  0  0  0  0  0  0
  120.3171  122.2121   85.8746 H   0  0  0  0  0  0  0  0  0  0  0  0
  117.9398  124.5583   82.8142 H   0  0  0  0  0  0  0  0  0  0  0  0
  119.4165  125.0383   81.9111 H   0  0  0  0  0  0  0  0  0  0  0  0
  118.8814  123.3236   81.9111 H   0  0  0  0  0  0  0  0  0  0  0  0
  123.3413  123.5683   83.0927 H   0  0  0  0  0  0  0  0  0  0  0  0
  125.0854  123.3173   84.8631 H   0  0  0  0  0  0  0  0  0  0  0  0
  124.5044  119.7006   91.1096 H   0  0  0  0  0  0  0  0  0  0  0  0
  123.4725  119.3877   89.6730 H   0  0  0  0  0  0  0  0  0  0  0  0
  125.1927  118.8705   89.6730 H   0  0  0  0  0  0  0  0  0  0  0  0
  1  2  1  0
  2  3  2  0
  2  4  1  0
  4  5  1  0
  5  6  1  0
  6  7  1  0
  7  8  2  0
  8  9  1  0
  9 10  2  0
 10 11  1  0
 11 12  1  0
 12 13  1  0
 12 14  2  0
 10 15  1  0
 15 16  2  0
  5 17  1  0
 17 18  1  0
 17 19  2  0
 16  7  1  0
  1 20  1  0
  1 21  1  0
  1 22  1  0
  4 23  1  0
  5 24  1  0
  6 25  1  0
  6 26  1  0
  8 27  1  0
  9 28  1  0
 13 29  1  0
 13 30  1  0
 13 31  1  0
 15 32  1  0
 16 33  1  0
 18 34  1  0
 18 35  1  0
 18 36  1  0
M  END
>  <loss>  (13) 
0.6571060419082642

>  <score>  (13) 
2.170548439025879

$$$$
WTEMYUWYDPNDCL-UHFFFAOYSA-N
     RDKit          3D

 36 36  0  0  0  0  0  0  0  0999 V2000
  125.8352  121.3695   89.5461 C   0  0  0  0  0  0  0  0  0  0  0  0
  125.6958  121.0333   88.0864 C   0  0  0  0  0  0  0  0  0  0  0  0
  124.8172  120.2889   87.6638 O   0  0  0  0  0  0  0  0  0  0  0  0
  126.6225  121.6487   87.2757 N   0  0  0  0  0  0  0  0  0  0  0  0
  126.2086  122.2033   85.9878 C   0  0  0  0  0  0  0  0  0  0  0  0
  125.0761  121.3967   85.3405 C   0  0  0  0  0  0  0  0  0  0  0  0
  123.8412  122.2257   85.0731 C   0  0  0  0  0  0  0  0  0  0  0  0
  123.7253  122.9626   83.8838 C   0  0  0  0  0  0  0  0  0  0  0  0
  122.5898  123.7356   83.6390 C   0  0  0  0  0  0  0  0  0  0  0  0
  121.5653  123.7597   84.5810 C   0  0  0  0  0  0  0  0  0  0  0  0
  120.4635  124.5827   84.3343 O   0  0  0  0  0  0  0  0  0  0  0  0
  119.2488  123.9090   84.2763 C   0  0  0  0  0  0  0  0  0  0  0  0
  118.7628  123.9197   82.8572 C   0  0  0  0  0  0  0  0  0  0  0  0
  118.6497  123.3820   85.2036 O   0  0  0  0  0  0  0  0  0  0  0  0
  121.6689  123.0549   85.7778 C   0  0  0  0  0  0  0  0  0  0  0  0
  122.8058  122.2828   86.0188 C   0  0  0  0  0  0  0  0  0  0  0  0
  127.4298  122.1451   85.0679 C   0  0  0  0  0  0  0  0  0  0  0  0
  128.2662  123.3931   84.9720 C   0  0  0  0  0  0  0  0  0  0  0  0
  127.7031  121.1339   84.4154 O   0  0  0  0  0  0  0  0  0  0  0  0
  125.4838  120.5219   90.1527 H   0  0  0  0  0  0  0  0  0  0  0  0
  126.8916  121.5722   89.7764 H   0  0  0  0  0  0  0  0  0  0  0  0
  125.2323  122.2603   89.7764 H   0  0  0  0  0  0  0  0  0  0  0  0
  127.6054  121.7183   87.5757 H   0  0  0  0  0  0  0  0  0  0  0  0
  125.8365  123.2268   86.1423 H   0  0  0  0  0  0  0  0  0  0  0  0
  125.4379  120.9879   84.3855 H   0  0  0  0  0  0  0  0  0  0  0  0
  124.7930  120.6012   86.0456 H   0  0  0  0  0  0  0  0  0  0  0  0
  124.5350  122.9303   83.1399 H   0  0  0  0  0  0  0  0  0  0  0  0
  122.5051  124.3200   82.7109 H   0  0  0  0  0  0  0  0  0  0  0  0
  117.6631  123.9440   82.8464 H   0  0  0  0  0  0  0  0  0  0  0  0
  119.1542  124.8095   82.3422 H   0  0  0  0  0  0  0  0  0  0  0  0
  119.1146  123.0136   82.3422 H   0  0  0  0  0  0  0  0  0  0  0  0
  120.8632  123.1064   86.5249 H   0  0  0  0  0  0  0  0  0  0  0  0
  122.8912  121.7147   86.9568 H   0  0  0  0  0  0  0  0  0  0  0  0
  128.5067  123.7520   85.9836 H   0  0  0  0  0  0  0  0  0  0  0  0
  129.1976  123.1696   84.4311 H   0  0  0  0  0  0  0  0  0  0  0  0
  127.7054  124.1696   84.4311 H   0  0  0  0  0  0  0  0  0  0  0  0
  1  2  1  0
  2  3  2  0
  2  4  1  0
  4  5  1  0
  5  6  1  0
  6  7  1  0
  7  8  2  0
  8  9  1  0
  9 10  2  0
 10 11  1  0
 11 12  1  0
 12 13  1  0
 12 14  2  0
 10 15  1  0
 15 16  2  0
  5 17  1  0
 17 18  1  0
 17 19  2  0
 16  7  1  0
  1 20  1  0
  1 21  1  0
  1 22  1  0
  4 23  1  0
  5 24  1  0
  6 25  1  0
  6 26  1  0
  8 27  1  0
  9 28  1  0
 13 29  1  0
 13 30  1  0
 13 31  1  0
 15 32  1  0
 16 33  1  0
 18 34  1  0
 18 35  1  0
 18 36  1  0
M  END
>  <loss>  (14) 
0.6757604479789734

>  <score>  (14) 
2.0242979526519775

$$$$
WTEMYUWYDPNDCL-UHFFFAOYSA-N
     RDKit          3D

 36 36  0  0  0  0  0  0  0  0999 V2000
  128.3151  120.8058   87.9188 C   0  0  0  0  0  0  0  0  0  0  0  0
  126.8755  120.8545   87.4851 C   0  0  0  0  0  0  0  0  0  0  0  0
  126.5191  121.4041   86.4479 O   0  0  0  0  0  0  0  0  0  0  0  0
  126.0026  120.2503   88.3613 N   0  0  0  0  0  0  0  0  0  0  0  0
  125.1115  121.0693   89.1817 C   0  0  0  0  0  0  0  0  0  0  0  0
  123.6322  120.8319   88.8542 C   0  0  0  0  0  0  0  0  0  0  0  0
  123.1904  121.5290   87.5882 C   0  0  0  0  0  0  0  0  0  0  0  0
  122.1846  120.9708   86.7841 C   0  0  0  0  0  0  0  0  0  0  0  0
  121.7817  121.6081   85.6102 C   0  0  0  0  0  0  0  0  0  0  0  0
  122.3793  122.8134   85.2499 C   0  0  0  0  0  0  0  0  0  0  0  0
  122.0346  123.4481   84.0538 O   0  0  0  0  0  0  0  0  0  0  0  0
  120.7637  124.0118   84.0513 C   0  0  0  0  0  0  0  0  0  0  0  0
  120.0882  123.6635   82.7579 C   0  0  0  0  0  0  0  0  0  0  0  0
  120.2509  124.6854   84.9344 O   0  0  0  0  0  0  0  0  0  0  0  0
  123.3943  123.3736   86.0204 C   0  0  0  0  0  0  0  0  0  0  0  0
  123.7948  122.7331   87.1934 C   0  0  0  0  0  0  0  0  0  0  0  0
  125.3547  120.6656   90.6373 C   0  0  0  0  0  0  0  0  0  0  0  0
  125.9346  121.7176   91.5447 C   0  0  0  0  0  0  0  0  0  0  0  0
  125.0662  119.5410   91.0557 O   0  0  0  0  0  0  0  0  0  0  0  0
  128.3672  120.8040   89.0175 H   0  0  0  0  0  0  0  0  0  0  0  0
  128.7850  119.8912   87.5279 H   0  0  0  0  0  0  0  0  0  0  0  0
  128.8458  121.6865   87.5279 H   0  0  0  0  0  0  0  0  0  0  0  0
  125.9772  119.2236   88.4387 H   0  0  0  0  0  0  0  0  0  0  0  0
  125.3245  122.1313   88.9899 H   0  0  0  0  0  0  0  0  0  0  0  0
  123.4683  119.7507   88.7349 H   0  0  0  0  0  0  0  0  0  0  0  0
  123.0401  121.2470   89.6831 H   0  0  0  0  0  0  0  0  0  0  0  0
  121.7106  120.0238   87.0817 H   0  0  0  0  0  0  0  0  0  0  0  0
  121.0005  121.1634   84.9762 H   0  0  0  0  0  0  0  0  0  0  0  0
  119.1283  123.1687   82.9672 H   0  0  0  0  0  0  0  0  0  0  0  0
  119.9089  124.5816   82.1791 H   0  0  0  0  0  0  0  0  0  0  0  0
  120.7320  122.9849   82.1791 H   0  0  0  0  0  0  0  0  0  0  0  0
  123.8758  124.3119   85.7075 H   0  0  0  0  0  0  0  0  0  0  0  0
  124.5893  123.1744   87.8130 H   0  0  0  0  0  0  0  0  0  0  0  0
  125.7741  121.4264   92.5932 H   0  0  0  0  0  0  0  0  0  0  0  0
  127.0133  121.8140   91.3519 H   0  0  0  0  0  0  0  0  0  0  0  0
  125.4401  122.6811   91.3519 H   0  0  0  0  0  0  0  0  0  0  0  0
  1  2  1  0
  2  3  2  0
  2  4  1  0
  4  5  1  0
  5  6  1  0
  6  7  1  0
  7  8  2  0
  8  9  1  0
  9 10  2  0
 10 11  1  0
 11 12  1  0
 12 13  1  0
 12 14  2  0
 10 15  1  0
 15 16  2  0
  5 17  1  0
 17 18  1  0
 17 19  2  0
 16  7  1  0
  1 20  1  0
  1 21  1  0
  1 22  1  0
  4 23  1  0
  5 24  1  0
  6 25  1  0
  6 26  1  0
  8 27  1  0
  9 28  1  0
 13 29  1  0
 13 30  1  0
 13 31  1  0
 15 32  1  0
 16 33  1  0
 18 34  1  0
 18 35  1  0
 18 36  1  0
M  END
>  <loss>  (15) 
0.6970378160476685

>  <score>  (15) 
2.002016067504883

$$$$
WTEMYUWYDPNDCL-UHFFFAOYSA-N
     RDKit          3D

 36 36  0  0  0  0  0  0  0  0999 V2000
  127.5273  121.2319   87.2113 C   0  0  0  0  0  0  0  0  0  0  0  0
  126.2959  121.4197   86.3679 C   0  0  0  0  0  0  0  0  0  0  0  0
  126.3324  121.9381   85.2567 O   0  0  0  0  0  0  0  0  0  0  0  0
  125.1344  120.9800   86.9613 N   0  0  0  0  0  0  0  0  0  0  0  0
  124.8429  121.3425   88.3474 C   0  0  0  0  0  0  0  0  0  0  0  0
  123.6739  122.3288   88.4606 C   0  0  0  0  0  0  0  0  0  0  0  0
  122.9516  122.5384   87.1498 C   0  0  0  0  0  0  0  0  0  0  0  0
  121.5643  122.3440   87.0645 C   0  0  0  0  0  0  0  0  0  0  0  0
  120.8969  122.5281   85.8532 C   0  0  0  0  0  0  0  0  0  0  0  0
  121.6205  122.9205   84.7297 C   0  0  0  0  0  0  0  0  0  0  0  0
  120.9891  123.0616   83.4912 O   0  0  0  0  0  0  0  0  0  0  0  0
  119.8036  123.7867   83.5331 C   0  0  0  0  0  0  0  0  0  0  0  0
  119.0298  123.5118   82.2777 C   0  0  0  0  0  0  0  0  0  0  0  0
  119.4240  124.5339   84.4242 O   0  0  0  0  0  0  0  0  0  0  0  0
  123.0001  123.0971   84.7860 C   0  0  0  0  0  0  0  0  0  0  0  0
  123.6639  122.9116   85.9991 C   0  0  0  0  0  0  0  0  0  0  0  0
  124.4566  120.0507   89.0707 C   0  0  0  0  0  0  0  0  0  0  0  0
  124.1639  120.1599   90.5433 C   0  0  0  0  0  0  0  0  0  0  0  0
  124.3635  118.9752   88.4727 O   0  0  0  0  0  0  0  0  0  0  0  0
  127.2527  121.2738   88.2756 H   0  0  0  0  0  0  0  0  0  0  0  0
  127.9794  120.2544   86.9875 H   0  0  0  0  0  0  0  0  0  0  0  0
  128.2503  122.0301   86.9875 H   0  0  0  0  0  0  0  0  0  0  0  0
  124.4720  120.3970   86.4300 H   0  0  0  0  0  0  0  0  0  0  0  0
  125.7276  121.8297   88.7832 H   0  0  0  0  0  0  0  0  0  0  0  0
  122.9566  121.9396   89.1982 H   0  0  0  0  0  0  0  0  0  0  0  0
  124.0901  123.2998   88.7668 H   0  0  0  0  0  0  0  0  0  0  0  0
  120.9990  122.0443   87.9593 H   0  0  0  0  0  0  0  0  0  0  0  0
  119.8111  122.3651   85.7862 H   0  0  0  0  0  0  0  0  0  0  0  0
  118.0228  123.1541   82.5386 H   0  0  0  0  0  0  0  0  0  0  0  0
  118.9490  124.4362   81.6870 H   0  0  0  0  0  0  0  0  0  0  0  0
  119.5502  122.7435   81.6870 H   0  0  0  0  0  0  0  0  0  0  0  0
  123.5613  123.3799   83.8832 H   0  0  0  0  0  0  0  0  0  0  0  0
  124.7527  123.0588   86.0542 H   0  0  0  0  0  0  0  0  0  0  0  0
  125.0431  119.8318   91.1172 H   0  0  0  0  0  0  0  0  0  0  0  0
  123.9312  121.2052   90.7944 H   0  0  0  0  0  0  0  0  0  0  0  0
  123.3034  119.5223   90.7944 H   0  0  0  0  0  0  0  0  0  0  0  0
  1  2  1  0
  2  3  2  0
  2  4  1  0
  4  5  1  0
  5  6  1  0
  6  7  1  0
  7  8  2  0
  8  9  1  0
  9 10  2  0
 10 11  1  0
 11 12  1  0
 12 13  1  0
 12 14  2  0
 10 15  1  0
 15 16  2  0
  5 17  1  0
 17 18  1  0
 17 19  2  0
 16  7  1  0
  1 20  1  0
  1 21  1  0
  1 22  1  0
  4 23  1  0
  5 24  1  0
  6 25  1  0
  6 26  1  0
  8 27  1  0
  9 28  1  0
 13 29  1  0
 13 30  1  0
 13 31  1  0
 15 32  1  0
 16 33  1  0
 18 34  1  0
 18 35  1  0
 18 36  1  0
M  END
>  <loss>  (16) 
0.7020519971847534

>  <score>  (16) 
1.9746636152267456

$$$$
WTEMYUWYDPNDCL-UHFFFAOYSA-N
     RDKit          3D

 36 36  0  0  0  0  0  0  0  0999 V2000
  126.4082  119.7519   88.8169 C   0  0  0  0  0  0  0  0  0  0  0  0
  125.8877  120.9280   88.0366 C   0  0  0  0  0  0  0  0  0  0  0  0
  124.7171  121.2901   88.0949 O   0  0  0  0  0  0  0  0  0  0  0  0
  126.8414  121.5659   87.2762 N   0  0  0  0  0  0  0  0  0  0  0  0
  126.4746  122.1459   85.9852 C   0  0  0  0  0  0  0  0  0  0  0  0
  125.3840  121.3387   85.2702 C   0  0  0  0  0  0  0  0  0  0  0  0
  124.1341  122.1453   85.0036 C   0  0  0  0  0  0  0  0  0  0  0  0
  123.9498  122.7796   83.7649 C   0  0  0  0  0  0  0  0  0  0  0  0
  122.8005  123.5319   83.5200 C   0  0  0  0  0  0  0  0  0  0  0  0
  121.8305  123.6376   84.5126 C   0  0  0  0  0  0  0  0  0  0  0  0
  120.7146  124.4395   84.2597 O   0  0  0  0  0  0  0  0  0  0  0  0
  119.5219  123.7361   84.1357 C   0  0  0  0  0  0  0  0  0  0  0  0
  119.0878  123.7790   82.7004 C   0  0  0  0  0  0  0  0  0  0  0  0
  118.9041  123.1642   85.0233 O   0  0  0  0  0  0  0  0  0  0  0  0
  122.0027  123.0359   85.7568 C   0  0  0  0  0  0  0  0  0  0  0  0
  123.1532  122.2842   85.9977 C   0  0  0  0  0  0  0  0  0  0  0  0
  127.7351  122.1285   85.1181 C   0  0  0  0  0  0  0  0  0  0  0  0
  128.4678  123.4342   84.9611 C   0  0  0  0  0  0  0  0  0  0  0  0
  128.1197  121.1012   84.5529 O   0  0  0  0  0  0  0  0  0  0  0  0
  126.3174  119.9571   89.8938 H   0  0  0  0  0  0  0  0  0  0  0  0
  125.8226  118.8558   88.5638 H   0  0  0  0  0  0  0  0  0  0  0  0
  127.4652  119.5827   88.5638 H   0  0  0  0  0  0  0  0  0  0  0  0
  127.8114  121.6345   87.6159 H   0  0  0  0  0  0  0  0  0  0  0  0
  126.0800  123.1597   86.1479 H   0  0  0  0  0  0  0  0  0  0  0  0
  125.7838  120.9833   84.3091 H   0  0  0  0  0  0  0  0  0  0  0  0
  125.1040  120.5050   85.9309 H   0  0  0  0  0  0  0  0  0  0  0  0
  124.7166  122.6830   82.9821 H   0  0  0  0  0  0  0  0  0  0  0  0
  122.6625  124.0363   82.5522 H   0  0  0  0  0  0  0  0  0  0  0  0
  117.9942  123.8870   82.6512 H   0  0  0  0  0  0  0  0  0  0  0  0
  119.5637  124.6345   82.1988 H   0  0  0  0  0  0  0  0  0  0  0  0
  119.3872  122.8469   82.1988 H   0  0  0  0  0  0  0  0  0  0  0  0
  121.2400  123.1519   86.5409 H   0  0  0  0  0  0  0  0  0  0  0  0
  123.2924  121.7968   86.9740 H   0  0  0  0  0  0  0  0  0  0  0  0
  128.6992  123.8465   85.9543 H   0  0  0  0  0  0  0  0  0  0  0  0
  129.4030  123.2655   84.4072 H   0  0  0  0  0  0  0  0  0  0  0  0
  127.8366  124.1446   84.4072 H   0  0  0  0  0  0  0  0  0  0  0  0
  1  2  1  0
  2  3  2  0
  2  4  1  0
  4  5  1  0
  5  6  1  0
  6  7  1  0
  7  8  2  0
  8  9  1  0
  9 10  2  0
 10 11  1  0
 11 12  1  0
 12 13  1  0
 12 14  2  0
 10 15  1  0
 15 16  2  0
  5 17  1  0
 17 18  1  0
 17 19  2  0
 16  7  1  0
  1 20  1  0
  1 21  1  0
  1 22  1  0
  4 23  1  0
  5 24  1  0
  6 25  1  0
  6 26  1  0
  8 27  1  0
  9 28  1  0
 13 29  1  0
 13 30  1  0
 13 31  1  0
 15 32  1  0
 16 33  1  0
 18 34  1  0
 18 35  1  0
 18 36  1  0
M  END
>  <loss>  (17) 
0.6932352781295776

>  <score>  (17) 
1.8526731729507446

$$$$
WTEMYUWYDPNDCL-UHFFFAOYSA-N
     RDKit          3D

 36 36  0  0  0  0  0  0  0  0999 V2000
  126.7570  121.5838   88.9233 C   0  0  0  0  0  0  0  0  0  0  0  0
  126.3398  121.4274   87.4864 C   0  0  0  0  0  0  0  0  0  0  0  0
  125.3822  120.7381   87.1507 O   0  0  0  0  0  0  0  0  0  0  0  0
  127.1111  122.1386   86.5954 N   0  0  0  0  0  0  0  0  0  0  0  0
  126.4978  122.7137   85.3993 C   0  0  0  0  0  0  0  0  0  0  0  0
  125.4942  121.7595   84.7403 C   0  0  0  0  0  0  0  0  0  0  0  0
  124.0615  122.2163   84.8910 C   0  0  0  0  0  0  0  0  0  0  0  0
  123.4981  123.1036   83.9603 C   0  0  0  0  0  0  0  0  0  0  0  0
  122.1784  123.5333   84.1026 C   0  0  0  0  0  0  0  0  0  0  0  0
  121.4198  123.0635   85.1710 C   0  0  0  0  0  0  0  0  0  0  0  0
  120.1185  123.5504   85.3187 O   0  0  0  0  0  0  0  0  0  0  0  0
  119.7184  124.4251   84.3150 C   0  0  0  0  0  0  0  0  0  0  0  0
  118.8317  123.6834   83.3590 C   0  0  0  0  0  0  0  0  0  0  0  0
  120.0165  125.6060   84.2001 O   0  0  0  0  0  0  0  0  0  0  0  0
  121.9650  122.2009   86.1189 C   0  0  0  0  0  0  0  0  0  0  0  0
  123.2851  121.7733   85.9729 C   0  0  0  0  0  0  0  0  0  0  0  0
  127.6309  122.9833   84.4071 C   0  0  0  0  0  0  0  0  0  0  0  0
  128.2035  124.3755   84.3940 C   0  0  0  0  0  0  0  0  0  0  0  0
  128.0396  122.1107   83.6361 O   0  0  0  0  0  0  0  0  0  0  0  0
  125.9312  121.2741   89.5806 H   0  0  0  0  0  0  0  0  0  0  0  0
  127.6378  120.9549   89.1199 H   0  0  0  0  0  0  0  0  0  0  0  0
  127.0070  122.6368   89.1199 H   0  0  0  0  0  0  0  0  0  0  0  0
  128.1181  122.2655   86.7710 H   0  0  0  0  0  0  0  0  0  0  0  0
  125.9492  123.6244   85.6814 H   0  0  0  0  0  0  0  0  0  0  0  0
  125.7290  121.6891   83.6680 H   0  0  0  0  0  0  0  0  0  0  0  0
  125.5848  120.7860   85.2443 H   0  0  0  0  0  0  0  0  0  0  0  0
  124.1012  123.4624   83.1132 H   0  0  0  0  0  0  0  0  0  0  0  0
  121.7417  124.2362   83.3778 H   0  0  0  0  0  0  0  0  0  0  0  0
  118.1081  123.0780   83.9245 H   0  0  0  0  0  0  0  0  0  0  0  0
  118.2922  124.4031   82.7257 H   0  0  0  0  0  0  0  0  0  0  0  0
  119.4448  123.0253   82.7257 H   0  0  0  0  0  0  0  0  0  0  0  0
  121.3616  121.8606   86.9733 H   0  0  0  0  0  0  0  0  0  0  0  0
  123.7204  121.0838   86.7112 H   0  0  0  0  0  0  0  0  0  0  0  0
  128.3464  124.7230   85.4278 H   0  0  0  0  0  0  0  0  0  0  0  0
  129.1718  124.3688   83.8722 H   0  0  0  0  0  0  0  0  0  0  0  0
  127.5105  125.0520   83.8722 H   0  0  0  0  0  0  0  0  0  0  0  0
  1  2  1  0
  2  3  2  0
  2  4  1  0
  4  5  1  0
  5  6  1  0
  6  7  1  0
  7  8  2  0
  8  9  1  0
  9 10  2  0
 10 11  1  0
 11 12  1  0
 12 13  1  0
 12 14  2  0
 10 15  1  0
 15 16  2  0
  5 17  1  0
 17 18  1  0
 17 19  2  0
 16  7  1  0
  1 20  1  0
  1 21  1  0
  1 22  1  0
  4 23  1  0
  5 24  1  0
  6 25  1  0
  6 26  1  0
  8 27  1  0
  9 28  1  0
 13 29  1  0
 13 30  1  0
 13 31  1  0
 15 32  1  0
 16 33  1  0
 18 34  1  0
 18 35  1  0
 18 36  1  0
M  END
>  <loss>  (18) 
0.7095175981521606

>  <score>  (18) 
1.9077926874160767

$$$$
WTEMYUWYDPNDCL-UHFFFAOYSA-N
     RDKit          3D

 36 36  0  0  0  0  0  0  0  0999 V2000
  123.1695  123.3290   82.0917 C   0  0  0  0  0  0  0  0  0  0  0  0
  124.0563  122.7093   83.1369 C   0  0  0  0  0  0  0  0  0  0  0  0
  124.1591  121.4946   83.2743 O   0  0  0  0  0  0  0  0  0  0  0  0
  124.7418  123.6105   83.9097 N   0  0  0  0  0  0  0  0  0  0  0  0
  125.6318  123.1809   84.9881 C   0  0  0  0  0  0  0  0  0  0  0  0
  125.3337  121.7343   85.4084 C   0  0  0  0  0  0  0  0  0  0  0  0
  124.2006  121.6314   86.4009 C   0  0  0  0  0  0  0  0  0  0  0  0
  123.0004  122.3232   86.1725 C   0  0  0  0  0  0  0  0  0  0  0  0
  121.9675  122.2708   87.1075 C   0  0  0  0  0  0  0  0  0  0  0  0
  122.1453  121.5336   88.2751 C   0  0  0  0  0  0  0  0  0  0  0  0
  121.1025  121.4622   89.1980 O   0  0  0  0  0  0  0  0  0  0  0  0
  121.5025  121.8021   90.4849 C   0  0  0  0  0  0  0  0  0  0  0  0
  120.6364  122.9243   90.9755 C   0  0  0  0  0  0  0  0  0  0  0  0
  122.4039  121.2937   91.1384 O   0  0  0  0  0  0  0  0  0  0  0  0
  123.3150  120.8145   88.5080 C   0  0  0  0  0  0  0  0  0  0  0  0
  124.3459  120.8692   87.5705 C   0  0  0  0  0  0  0  0  0  0  0  0
  127.0530  123.3032   84.4356 C   0  0  0  0  0  0  0  0  0  0  0  0
  127.5160  124.6752   84.0197 C   0  0  0  0  0  0  0  0  0  0  0  0
  127.7776  122.3119   84.3015 O   0  0  0  0  0  0  0  0  0  0  0  0
  122.3627  123.8928   82.5828 H   0  0  0  0  0  0  0  0  0  0  0  0
  123.7632  124.0098   81.4640 H   0  0  0  0  0  0  0  0  0  0  0  0
  122.7343  122.5374   81.4640 H   0  0  0  0  0  0  0  0  0  0  0  0
  124.6271  124.6174   83.7259 H   0  0  0  0  0  0  0  0  0  0  0  0
  125.4939  123.8002   85.8867 H   0  0  0  0  0  0  0  0  0  0  0  0
  125.0678  121.1561   84.5112 H   0  0  0  0  0  0  0  0  0  0  0  0
  126.2369  121.3403   85.8972 H   0  0  0  0  0  0  0  0  0  0  0  0
  122.8743  122.9099   85.2506 H   0  0  0  0  0  0  0  0  0  0  0  0
  121.0236  122.8054   86.9249 H   0  0  0  0  0  0  0  0  0  0  0  0
  120.6320  122.9301   92.0755 H   0  0  0  0  0  0  0  0  0  0  0  0
  121.0321  123.8817   90.6055 H   0  0  0  0  0  0  0  0  0  0  0  0
  119.6100  122.7842   90.6055 H   0  0  0  0  0  0  0  0  0  0  0  0
  123.4243  120.2104   89.4207 H   0  0  0  0  0  0  0  0  0  0  0  0
  125.2777  120.3123   87.7486 H   0  0  0  0  0  0  0  0  0  0  0  0
  127.7202  125.2804   84.9153 H   0  0  0  0  0  0  0  0  0  0  0  0
  128.4339  124.5864   83.4201 H   0  0  0  0  0  0  0  0  0  0  0  0
  126.7319  125.1606   83.4201 H   0  0  0  0  0  0  0  0  0  0  0  0
  1  2  1  0
  2  3  2  0
  2  4  1  0
  4  5  1  0
  5  6  1  0
  6  7  1  0
  7  8  2  0
  8  9  1  0
  9 10  2  0
 10 11  1  0
 11 12  1  0
 12 13  1  0
 12 14  2  0
 10 15  1  0
 15 16  2  0
  5 17  1  0
 17 18  1  0
 17 19  2  0
 16  7  1  0
  1 20  1  0
  1 21  1  0
  1 22  1  0
  4 23  1  0
  5 24  1  0
  6 25  1  0
  6 26  1  0
  8 27  1  0
  9 28  1  0
 13 29  1  0
 13 30  1  0
 13 31  1  0
 15 32  1  0
 16 33  1  0
 18 34  1  0
 18 35  1  0
 18 36  1  0
M  END
>  <loss>  (19) 
0.7343270182609558

>  <score>  (19) 
1.9861946105957031

$$$$
WTEMYUWYDPNDCL-UHFFFAOYSA-N
     RDKit          3D

 36 36  0  0  0  0  0  0  0  0999 V2000
  123.0035  123.0632   81.9596 C   0  0  0  0  0  0  0  0  0  0  0  0
  123.9185  122.5519   83.0384 C   0  0  0  0  0  0  0  0  0  0  0  0
  124.0719  121.3544   83.2560 O   0  0  0  0  0  0  0  0  0  0  0  0
  124.5689  123.5301   83.7450 N   0  0  0  0  0  0  0  0  0  0  0  0
  125.3683  123.2222   84.9306 C   0  0  0  0  0  0  0  0  0  0  0  0
  125.0751  121.8044   85.4427 C   0  0  0  0  0  0  0  0  0  0  0  0
  123.9235  121.7573   86.4180 C   0  0  0  0  0  0  0  0  0  0  0  0
  122.7816  122.5437   86.1967 C   0  0  0  0  0  0  0  0  0  0  0  0
  121.7346  122.5411   87.1172 C   0  0  0  0  0  0  0  0  0  0  0  0
  121.8403  121.7583   88.2637 C   0  0  0  0  0  0  0  0  0  0  0  0
  120.7822  121.7379   89.1715 O   0  0  0  0  0  0  0  0  0  0  0  0
  121.2110  121.7369   90.4935 C   0  0  0  0  0  0  0  0  0  0  0  0
  120.5838  122.9009   91.2020 C   0  0  0  0  0  0  0  0  0  0  0  0
  121.9708  120.9378   91.0246 O   0  0  0  0  0  0  0  0  0  0  0  0
  122.9497  120.9469   88.4883 C   0  0  0  0  0  0  0  0  0  0  0  0
  123.9950  120.9520   87.5654 C   0  0  0  0  0  0  0  0  0  0  0  0
  126.8301  123.3512   84.4985 C   0  0  0  0  0  0  0  0  0  0  0  0
  127.3693  124.7433   84.2957 C   0  0  0  0  0  0  0  0  0  0  0  0
  127.5283  122.3542   84.2887 O   0  0  0  0  0  0  0  0  0  0  0  0
  122.1311  123.5507   82.4194 H   0  0  0  0  0  0  0  0  0  0  0  0
  123.5432  123.7905   81.3353 H   0  0  0  0  0  0  0  0  0  0  0  0
  122.6669  122.2224   81.3353 H   0  0  0  0  0  0  0  0  0  0  0  0
  124.4925  124.5086   83.4325 H   0  0  0  0  0  0  0  0  0  0  0  0
  125.1306  123.9068   85.7582 H   0  0  0  0  0  0  0  0  0  0  0  0
  124.8324  121.1639   84.5820 H   0  0  0  0  0  0  0  0  0  0  0  0
  125.9720  121.4540   85.9744 H   0  0  0  0  0  0  0  0  0  0  0  0
  122.7127  123.1653   85.2918 H   0  0  0  0  0  0  0  0  0  0  0  0
  120.8359  123.1501   86.9399 H   0  0  0  0  0  0  0  0  0  0  0  0
  120.6628  122.7543   92.2893 H   0  0  0  0  0  0  0  0  0  0  0  0
  121.1049  123.8271   90.9181 H   0  0  0  0  0  0  0  0  0  0  0  0
  119.5236  122.9750   90.9181 H   0  0  0  0  0  0  0  0  0  0  0  0
  123.0008  120.3095   89.3834 H   0  0  0  0  0  0  0  0  0  0  0  0
  124.8800  120.3217   87.7373 H   0  0  0  0  0  0  0  0  0  0  0  0
  127.5510  125.2123   85.2740 H   0  0  0  0  0  0  0  0  0  0  0  0
  128.3129  124.6926   83.7325 H   0  0  0  0  0  0  0  0  0  0  0  0
  126.6378  125.3414   83.7325 H   0  0  0  0  0  0  0  0  0  0  0  0
  1  2  1  0
  2  3  2  0
  2  4  1  0
  4  5  1  0
  5  6  1  0
  6  7  1  0
  7  8  2  0
  8  9  1  0
  9 10  2  0
 10 11  1  0
 11 12  1  0
 12 13  1  0
 12 14  2  0
 10 15  1  0
 15 16  2  0
  5 17  1  0
 17 18  1  0
 17 19  2  0
 16  7  1  0
  1 20  1  0
  1 21  1  0
  1 22  1  0
  4 23  1  0
  5 24  1  0
  6 25  1  0
  6 26  1  0
  8 27  1  0
  9 28  1  0
 13 29  1  0
 13 30  1  0
 13 31  1  0
 15 32  1  0
 16 33  1  0
 18 34  1  0
 18 35  1  0
 18 36  1  0
M  END
>  <loss>  (20) 
0.7508507966995239

>  <score>  (20) 
1.9572641849517822

$$$$
WTEMYUWYDPNDCL-UHFFFAOYSA-N
     RDKit          3D

 36 36  0  0  0  0  0  0  0  0999 V2000
  127.5064  123.1911   82.4426 C   0  0  0  0  0  0  0  0  0  0  0  0
  126.6637  122.3632   83.3744 C   0  0  0  0  0  0  0  0  0  0  0  0
  125.9437  121.4540   82.9761 O   0  0  0  0  0  0  0  0  0  0  0  0
  126.7845  122.7086   84.7015 N   0  0  0  0  0  0  0  0  0  0  0  0
  126.1283  121.9014   85.7333 C   0  0  0  0  0  0  0  0  0  0  0  0
  125.1261  122.7521   86.5231 C   0  0  0  0  0  0  0  0  0  0  0  0
  123.7557  122.7863   85.8898 C   0  0  0  0  0  0  0  0  0  0  0  0
  122.7050  122.0308   86.4338 C   0  0  0  0  0  0  0  0  0  0  0  0
  121.4276  122.0968   85.8784 C   0  0  0  0  0  0  0  0  0  0  0  0
  121.2034  122.9311   84.7865 C   0  0  0  0  0  0  0  0  0  0  0  0
  119.9324  122.9760   84.2150 O   0  0  0  0  0  0  0  0  0  0  0  0
  119.5283  124.2698   83.9076 C   0  0  0  0  0  0  0  0  0  0  0  0
  118.8396  124.2534   82.5750 C   0  0  0  0  0  0  0  0  0  0  0  0
  119.6894  125.2759   84.5854 O   0  0  0  0  0  0  0  0  0  0  0  0
  122.2361  123.6692   84.2143 C   0  0  0  0  0  0  0  0  0  0  0  0
  123.5122  123.6005   84.7724 C   0  0  0  0  0  0  0  0  0  0  0  0
  127.2454  121.4024   86.6546 C   0  0  0  0  0  0  0  0  0  0  0  0
  127.1721  119.9675   87.1059 C   0  0  0  0  0  0  0  0  0  0  0  0
  128.1767  122.1400   86.9926 O   0  0  0  0  0  0  0  0  0  0  0  0
  128.1700  123.8429   83.0297 H   0  0  0  0  0  0  0  0  0  0  0  0
  128.1121  122.5271   81.8083 H   0  0  0  0  0  0  0  0  0  0  0  0
  126.8533  123.8085   81.8083 H   0  0  0  0  0  0  0  0  0  0  0  0
  127.3370  123.5356   84.9695 H   0  0  0  0  0  0  0  0  0  0  0  0
  125.5666  121.0653   85.2912 H   0  0  0  0  0  0  0  0  0  0  0  0
  125.0339  122.3349   87.5367 H   0  0  0  0  0  0  0  0  0  0  0  0
  125.5085  123.7834   86.5377 H   0  0  0  0  0  0  0  0  0  0  0  0
  122.8905  121.3829   87.3033 H   0  0  0  0  0  0  0  0  0  0  0  0
  120.6066  121.4968   86.2980 H   0  0  0  0  0  0  0  0  0  0  0  0
  117.7503  124.2275   82.7255 H   0  0  0  0  0  0  0  0  0  0  0  0
  119.1105  125.1582   82.0112 H   0  0  0  0  0  0  0  0  0  0  0  0
  119.1532  123.3624   82.0112 H   0  0  0  0  0  0  0  0  0  0  0  0
  122.0476  124.2991   83.3324 H   0  0  0  0  0  0  0  0  0  0  0  0
  124.3328  124.1877   84.3345 H   0  0  0  0  0  0  0  0  0  0  0  0
  127.1701  119.9286   88.2052 H   0  0  0  0  0  0  0  0  0  0  0  0
  126.2494  119.5088   86.7211 H   0  0  0  0  0  0  0  0  0  0  0  0
  128.0433  119.4171   86.7211 H   0  0  0  0  0  0  0  0  0  0  0  0
  1  2  1  0
  2  3  2  0
  2  4  1  0
  4  5  1  0
  5  6  1  0
  6  7  1  0
  7  8  2  0
  8  9  1  0
  9 10  2  0
 10 11  1  0
 11 12  1  0
 12 13  1  0
 12 14  2  0
 10 15  1  0
 15 16  2  0
  5 17  1  0
 17 18  1  0
 17 19  2  0
 16  7  1  0
  1 20  1  0
  1 21  1  0
  1 22  1  0
  4 23  1  0
  5 24  1  0
  6 25  1  0
  6 26  1  0
  8 27  1  0
  9 28  1  0
 13 29  1  0
 13 30  1  0
 13 31  1  0
 15 32  1  0
 16 33  1  0
 18 34  1  0
 18 35  1  0
 18 36  1  0
M  END
>  <loss>  (21) 
0.7251358032226562

>  <score>  (21) 
1.8005529642105103

$$$$
WTEMYUWYDPNDCL-UHFFFAOYSA-N
     RDKit          3D

 36 36  0  0  0  0  0  0  0  0999 V2000
  124.3354  122.1037   83.0760 C   0  0  0  0  0  0  0  0  0  0  0  0
  124.7232  122.3965   84.4995 C   0  0  0  0  0  0  0  0  0  0  0  0
  124.0909  123.1756   85.2052 O   0  0  0  0  0  0  0  0  0  0  0  0
  125.8287  121.7161   84.9403 N   0  0  0  0  0  0  0  0  0  0  0  0
  126.0326  121.4123   86.3566 C   0  0  0  0  0  0  0  0  0  0  0  0
  125.0359  120.3506   86.8438 C   0  0  0  0  0  0  0  0  0  0  0  0
  124.0850  120.8736   87.8936 C   0  0  0  0  0  0  0  0  0  0  0  0
  124.1250  120.3574   89.1987 C   0  0  0  0  0  0  0  0  0  0  0  0
  123.2189  120.8017   90.1607 C   0  0  0  0  0  0  0  0  0  0  0  0
  122.2671  121.7547   89.8080 C   0  0  0  0  0  0  0  0  0  0  0  0
  121.3771  122.2159   90.7773 O   0  0  0  0  0  0  0  0  0  0  0  0
  120.2249  121.4430   90.8571 C   0  0  0  0  0  0  0  0  0  0  0  0
  119.0327  122.3468   90.7470 C   0  0  0  0  0  0  0  0  0  0  0  0
  120.1560  120.2287   90.9937 O   0  0  0  0  0  0  0  0  0  0  0  0
  122.2291  122.3032   88.5285 C   0  0  0  0  0  0  0  0  0  0  0  0
  123.1370  121.8564   87.5689 C   0  0  0  0  0  0  0  0  0  0  0  0
  127.4698  120.9020   86.4755 C   0  0  0  0  0  0  0  0  0  0  0  0
  127.9977  120.6437   87.8627 C   0  0  0  0  0  0  0  0  0  0  0  0
  128.1800  120.7440   85.4774 O   0  0  0  0  0  0  0  0  0  0  0  0
  123.4574  121.4411   83.0640 H   0  0  0  0  0  0  0  0  0  0  0  0
  124.0915  123.0449   82.5614 H   0  0  0  0  0  0  0  0  0  0  0  0
  125.1736  121.6111   82.5614 H   0  0  0  0  0  0  0  0  0  0  0  0
  126.5349  121.4105   84.2557 H   0  0  0  0  0  0  0  0  0  0  0  0
  125.8680  122.3028   86.9811 H   0  0  0  0  0  0  0  0  0  0  0  0
  124.4488  119.9991   85.9826 H   0  0  0  0  0  0  0  0  0  0  0  0
  125.6181  119.5376   87.3022 H   0  0  0  0  0  0  0  0  0  0  0  0
  124.8755  119.5982   89.4637 H   0  0  0  0  0  0  0  0  0  0  0  0
  123.2555  120.4041   91.1856 H   0  0  0  0  0  0  0  0  0  0  0  0
  118.6806  122.6137   91.7543 H   0  0  0  0  0  0  0  0  0  0  0  0
  119.3142  123.2605   90.2029 H   0  0  0  0  0  0  0  0  0  0  0  0
  118.2290  121.8290   90.2029 H   0  0  0  0  0  0  0  0  0  0  0  0
  121.4915  123.0797   88.2776 H   0  0  0  0  0  0  0  0  0  0  0  0
  123.1101  122.2763   86.5526 H   0  0  0  0  0  0  0  0  0  0  0  0
  127.2685  121.0006   88.6049 H   0  0  0  0  0  0  0  0  0  0  0  0
  128.1602  119.5642   87.9981 H   0  0  0  0  0  0  0  0  0  0  0  0
  128.9499  121.1776   87.9981 H   0  0  0  0  0  0  0  0  0  0  0  0
  1  2  1  0
  2  3  2  0
  2  4  1  0
  4  5  1  0
  5  6  1  0
  6  7  1  0
  7  8  2  0
  8  9  1  0
  9 10  2  0
 10 11  1  0
 11 12  1  0
 12 13  1  0
 12 14  2  0
 10 15  1  0
 15 16  2  0
  5 17  1  0
 17 18  1  0
 17 19  2  0
 16  7  1  0
  1 20  1  0
  1 21  1  0
  1 22  1  0
  4 23  1  0
  5 24  1  0
  6 25  1  0
  6 26  1  0
  8 27  1  0
  9 28  1  0
 13 29  1  0
 13 30  1  0
 13 31  1  0
 15 32  1  0
 16 33  1  0
 18 34  1  0
 18 35  1  0
 18 36  1  0
M  END
>  <loss>  (22) 
0.8314435482025146

>  <score>  (22) 
2.1609184741973877

$$$$
WTEMYUWYDPNDCL-UHFFFAOYSA-N
     RDKit          3D

 36 36  0  0  0  0  0  0  0  0999 V2000
  128.2696  122.2327   87.8179 C   0  0  0  0  0  0  0  0  0  0  0  0
  127.0936  121.4139   87.3606 C   0  0  0  0  0  0  0  0  0  0  0  0
  126.7235  121.3914   86.1912 O   0  0  0  0  0  0  0  0  0  0  0  0
  126.4817  120.6921   88.3527 N   0  0  0  0  0  0  0  0  0  0  0  0
  125.1285  121.0068   88.8094 C   0  0  0  0  0  0  0  0  0  0  0  0
  124.0734  120.3634   87.8989 C   0  0  0  0  0  0  0  0  0  0  0  0
  123.4466  121.3415   86.9340 C   0  0  0  0  0  0  0  0  0  0  0  0
  122.3005  122.0653   87.2966 C   0  0  0  0  0  0  0  0  0  0  0  0
  121.7344  122.9816   86.4096 C   0  0  0  0  0  0  0  0  0  0  0  0
  122.3069  123.1574   85.1515 C   0  0  0  0  0  0  0  0  0  0  0  0
  121.8033  124.1035   84.2513 O   0  0  0  0  0  0  0  0  0  0  0  0
  120.4359  124.0290   84.0055 C   0  0  0  0  0  0  0  0  0  0  0  0
  120.2230  123.8700   82.5291 C   0  0  0  0  0  0  0  0  0  0  0  0
  119.5329  124.0787   84.8290 O   0  0  0  0  0  0  0  0  0  0  0  0
  123.4538  122.4610   84.7792 C   0  0  0  0  0  0  0  0  0  0  0  0
  124.0186  121.5472   85.6688 C   0  0  0  0  0  0  0  0  0  0  0  0
  125.0249  120.4558   90.2323 C   0  0  0  0  0  0  0  0  0  0  0  0
  125.5868  121.3052   91.3422 C   0  0  0  0  0  0  0  0  0  0  0  0
  124.5339  119.3457   90.4593 O   0  0  0  0  0  0  0  0  0  0  0  0
  128.2975  122.2521   88.9174 H   0  0  0  0  0  0  0  0  0  0  0  0
  129.1988  121.7853   87.4354 H   0  0  0  0  0  0  0  0  0  0  0  0
  128.1724  123.2595   87.4354 H   0  0  0  0  0  0  0  0  0  0  0  0
  126.9882  119.9078   88.7876 H   0  0  0  0  0  0  0  0  0  0  0  0
  124.9431  122.0907   88.7824 H   0  0  0  0  0  0  0  0  0  0  0  0
  124.5532  119.5601   87.3206 H   0  0  0  0  0  0  0  0  0  0  0  0
  123.2703  119.9821   88.5467 H   0  0  0  0  0  0  0  0  0  0  0  0
  121.8456  121.9093   88.2860 H   0  0  0  0  0  0  0  0  0  0  0  0
  120.8448  123.5596   86.7007 H   0  0  0  0  0  0  0  0  0  0  0  0
  119.3531  123.2205   82.3520 H   0  0  0  0  0  0  0  0  0  0  0  0
  120.0426  124.8562   82.0764 H   0  0  0  0  0  0  0  0  0  0  0  0
  121.1173  123.4168   82.0764 H   0  0  0  0  0  0  0  0  0  0  0  0
  123.9101  122.6299   83.7927 H   0  0  0  0  0  0  0  0  0  0  0  0
  124.9177  120.9845   85.3772 H   0  0  0  0  0  0  0  0  0  0  0  0
  125.3020  120.8746   92.3135 H   0  0  0  0  0  0  0  0  0  0  0  0
  126.6834  121.3351   91.2617 H   0  0  0  0  0  0  0  0  0  0  0  0
  125.1852  122.3261   91.2617 H   0  0  0  0  0  0  0  0  0  0  0  0
  1  2  1  0
  2  3  2  0
  2  4  1  0
  4  5  1  0
  5  6  1  0
  6  7  1  0
  7  8  2  0
  8  9  1  0
  9 10  2  0
 10 11  1  0
 11 12  1  0
 12 13  1  0
 12 14  2  0
 10 15  1  0
 15 16  2  0
  5 17  1  0
 17 18  1  0
 17 19  2  0
 16  7  1  0
  1 20  1  0
  1 21  1  0
  1 22  1  0
  4 23  1  0
  5 24  1  0
  6 25  1  0
  6 26  1  0
  8 27  1  0
  9 28  1  0
 13 29  1  0
 13 30  1  0
 13 31  1  0
 15 32  1  0
 16 33  1  0
 18 34  1  0
 18 35  1  0
 18 36  1  0
M  END
>  <loss>  (23) 
0.6664864420890808

>  <score>  (23) 
1.0199662446975708

$$$$
WTEMYUWYDPNDCL-UHFFFAOYSA-N
     RDKit          3D

 36 36  0  0  0  0  0  0  0  0999 V2000
  126.0422  123.1976   81.2922 C   0  0  0  0  0  0  0  0  0  0  0  0
  125.9910  122.1815   82.4006 C   0  0  0  0  0  0  0  0  0  0  0  0
  126.4886  121.0659   82.2926 O   0  0  0  0  0  0  0  0  0  0  0  0
  125.3527  122.6199   83.5388 N   0  0  0  0  0  0  0  0  0  0  0  0
  125.8513  122.2253   84.8589 C   0  0  0  0  0  0  0  0  0  0  0  0
  124.7571  122.3985   85.9193 C   0  0  0  0  0  0  0  0  0  0  0  0
  123.3805  122.5684   85.3220 C   0  0  0  0  0  0  0  0  0  0  0  0
  122.4342  123.3953   85.9476 C   0  0  0  0  0  0  0  0  0  0  0  0
  121.1784  123.5901   85.3732 C   0  0  0  0  0  0  0  0  0  0  0  0
  120.8792  122.9655   84.1653 C   0  0  0  0  0  0  0  0  0  0  0  0
  119.6140  123.1391   83.6055 O   0  0  0  0  0  0  0  0  0  0  0  0
  119.0527  124.3707   83.9211 C   0  0  0  0  0  0  0  0  0  0  0  0
  118.0755  124.7423   82.8453 C   0  0  0  0  0  0  0  0  0  0  0  0
  119.2910  125.0630   84.9017 O   0  0  0  0  0  0  0  0  0  0  0  0
  121.7925  122.1204   83.5406 C   0  0  0  0  0  0  0  0  0  0  0  0
  123.0472  121.9280   84.1180 C   0  0  0  0  0  0  0  0  0  0  0  0
  127.0343  123.1508   85.1585 C   0  0  0  0  0  0  0  0  0  0  0  0
  128.3996  122.5187   85.2244 C   0  0  0  0  0  0  0  0  0  0  0  0
  126.8755  124.3655   85.3163 O   0  0  0  0  0  0  0  0  0  0  0  0
  126.0931  124.2083   81.7233 H   0  0  0  0  0  0  0  0  0  0  0  0
  126.9324  123.0185   80.6714 H   0  0  0  0  0  0  0  0  0  0  0  0
  125.1384  123.1089   80.6714 H   0  0  0  0  0  0  0  0  0  0  0  0
  124.5234  123.2261   83.4623 H   0  0  0  0  0  0  0  0  0  0  0  0
  126.1530  121.1676   84.8737 H   0  0  0  0  0  0  0  0  0  0  0  0
  124.7515  121.5089   86.5662 H   0  0  0  0  0  0  0  0  0  0  0  0
  124.9869  123.3142   86.4838 H   0  0  0  0  0  0  0  0  0  0  0  0
  122.6847  123.8926   86.8963 H   0  0  0  0  0  0  0  0  0  0  0  0
  120.4330  124.2296   85.8686 H   0  0  0  0  0  0  0  0  0  0  0  0
  117.1414  125.0974   83.3051 H   0  0  0  0  0  0  0  0  0  0  0  0
  118.5034  125.5404   82.2209 H   0  0  0  0  0  0  0  0  0  0  0  0
  117.8650  123.8614   82.2209 H   0  0  0  0  0  0  0  0  0  0  0  0
  121.5275  121.6104   82.6027 H   0  0  0  0  0  0  0  0  0  0  0  0
  123.7800  121.2706   83.6272 H   0  0  0  0  0  0  0  0  0  0  0  0
  128.6909  122.3838   86.2765 H   0  0  0  0  0  0  0  0  0  0  0  0
  128.3753  121.5402   84.7224 H   0  0  0  0  0  0  0  0  0  0  0  0
  129.1300  123.1703   84.7224 H   0  0  0  0  0  0  0  0  0  0  0  0
  1  2  1  0
  2  3  2  0
  2  4  1  0
  4  5  1  0
  5  6  1  0
  6  7  1  0
  7  8  2  0
  8  9  1  0
  9 10  2  0
 10 11  1  0
 11 12  1  0
 12 13  1  0
 12 14  2  0
 10 15  1  0
 15 16  2  0
  5 17  1  0
 17 18  1  0
 17 19  2  0
 16  7  1  0
  1 20  1  0
  1 21  1  0
  1 22  1  0
  4 23  1  0
  5 24  1  0
  6 25  1  0
  6 26  1  0
  8 27  1  0
  9 28  1  0
 13 29  1  0
 13 30  1  0
 13 31  1  0
 15 32  1  0
 16 33  1  0
 18 34  1  0
 18 35  1  0
 18 36  1  0
M  END
>  <loss>  (24) 
0.8148348927497864

>  <score>  (24) 
1.744720458984375

$$$$
WTEMYUWYDPNDCL-UHFFFAOYSA-N
     RDKit          3D

 36 36  0  0  0  0  0  0  0  0999 V2000
  127.2357  123.5925   85.1114 C   0  0  0  0  0  0  0  0  0  0  0  0
  126.0545  122.6616   85.1323 C   0  0  0  0  0  0  0  0  0  0  0  0
  126.0560  121.6122   85.7677 O   0  0  0  0  0  0  0  0  0  0  0  0
  124.9802  123.0877   84.3946 N   0  0  0  0  0  0  0  0  0  0  0  0
  123.6976  122.3860   84.4284 C   0  0  0  0  0  0  0  0  0  0  0  0
  122.6421  123.1986   85.1911 C   0  0  0  0  0  0  0  0  0  0  0  0
  122.4036  122.6929   86.5939 C   0  0  0  0  0  0  0  0  0  0  0  0
  121.1840  122.0891   86.9362 C   0  0  0  0  0  0  0  0  0  0  0  0
  120.9735  121.6064   88.2284 C   0  0  0  0  0  0  0  0  0  0  0  0
  121.9795  121.7470   89.1823 C   0  0  0  0  0  0  0  0  0  0  0  0
  121.8308  121.2304   90.4746 O   0  0  0  0  0  0  0  0  0  0  0  0
  120.5909  121.4460   91.0676 C   0  0  0  0  0  0  0  0  0  0  0  0
  120.6391  122.7428   91.8199 C   0  0  0  0  0  0  0  0  0  0  0  0
  119.6059  120.7235   91.0052 O   0  0  0  0  0  0  0  0  0  0  0  0
  123.2025  122.3281   88.8578 C   0  0  0  0  0  0  0  0  0  0  0  0
  123.4108  122.8078   87.5647 C   0  0  0  0  0  0  0  0  0  0  0  0
  123.2832  122.1943   82.9688 C   0  0  0  0  0  0  0  0  0  0  0  0
  123.6177  120.8737   82.3259 C   0  0  0  0  0  0  0  0  0  0  0  0
  122.7298  123.0961   82.3322 O   0  0  0  0  0  0  0  0  0  0  0  0
  127.5350  123.8284   86.1433 H   0  0  0  0  0  0  0  0  0  0  0  0
  128.0740  123.1096   84.5878 H   0  0  0  0  0  0  0  0  0  0  0  0
  126.9621  124.5204   84.5878 H   0  0  0  0  0  0  0  0  0  0  0  0
  125.0791  123.9238   83.8013 H   0  0  0  0  0  0  0  0  0  0  0  0
  123.7865  121.4228   84.9521 H   0  0  0  0  0  0  0  0  0  0  0  0
  122.9796  124.2440   85.2487 H   0  0  0  0  0  0  0  0  0  0  0  0
  121.6939  123.1011   84.6421 H   0  0  0  0  0  0  0  0  0  0  0  0
  120.3893  121.9958   86.1815 H   0  0  0  0  0  0  0  0  0  0  0  0
  120.0228  121.1196   88.4914 H   0  0  0  0  0  0  0  0  0  0  0  0
  120.6316  122.5401   92.9010 H   0  0  0  0  0  0  0  0  0  0  0  0
  121.5581  123.2863   91.5552 H   0  0  0  0  0  0  0  0  0  0  0  0
  119.7630  123.3531   91.5552 H   0  0  0  0  0  0  0  0  0  0  0  0
  123.9972  122.4081   89.6142 H   0  0  0  0  0  0  0  0  0  0  0  0
  124.3701  123.2789   87.3042 H   0  0  0  0  0  0  0  0  0  0  0  0
  123.8079  120.1232   83.1073 H   0  0  0  0  0  0  0  0  0  0  0  0
  122.7742  120.5463   81.7005 H   0  0  0  0  0  0  0  0  0  0  0  0
  124.5155  120.9874   81.7005 H   0  0  0  0  0  0  0  0  0  0  0  0
  1  2  1  0
  2  3  2  0
  2  4  1  0
  4  5  1  0
  5  6  1  0
  6  7  1  0
  7  8  2  0
  8  9  1  0
  9 10  2  0
 10 11  1  0
 11 12  1  0
 12 13  1  0
 12 14  2  0
 10 15  1  0
 15 16  2  0
  5 17  1  0
 17 18  1  0
 17 19  2  0
 16  7  1  0
  1 20  1  0
  1 21  1  0
  1 22  1  0
  4 23  1  0
  5 24  1  0
  6 25  1  0
  6 26  1  0
  8 27  1  0
  9 28  1  0
 13 29  1  0
 13 30  1  0
 13 31  1  0
 15 32  1  0
 16 33  1  0
 18 34  1  0
 18 35  1  0
 18 36  1  0
M  END
>  <loss>  (25) 
0.8109936714172363

>  <score>  (25) 
-1.075906753540039

$$$$
