WWGJSAKTVIHBMA-UHFFFAOYSA-N
     RDKit          3D

 27 27  0  0  0  0  0  0  0  0999 V2000
  119.2346  123.0671   87.0006 N   0  0  0  0  0  0  0  0  0  0  0  0
  120.2985  123.4570   86.3966 C   0  0  0  0  0  0  0  0  0  0  0  0
  120.2331  124.4293   85.4631 N   0  0  0  0  0  0  0  0  0  0  0  0
  121.4354  122.8091   86.7278 N   0  0  0  0  0  0  0  0  0  0  0  0
  122.1717  122.2648   85.8148 C   0  0  0  0  0  0  0  0  0  0  0  0
  121.9075  122.2472   84.4719 N   0  0  0  0  0  0  0  0  0  0  0  0
  123.3360  121.5759   86.0362 N   0  0  0  0  0  0  0  0  0  0  0  0
  124.2248  121.6575   87.1297 C   0  0  0  0  0  0  0  0  0  0  0  0
  123.7521  121.6905   88.4532 C   0  0  0  0  0  0  0  0  0  0  0  0
  124.6195  121.7688   89.5466 C   0  0  0  0  0  0  0  0  0  0  0  0
  125.9907  121.8151   89.3435 C   0  0  0  0  0  0  0  0  0  0  0  0
  126.4902  121.7857   88.0454 C   0  0  0  0  0  0  0  0  0  0  0  0
  125.6237  121.7138   86.9319 C   0  0  0  0  0  0  0  0  0  0  0  0
  126.2566  121.6509   85.5651 C   0  0  0  0  0  0  0  0  0  0  0  0
  126.7123  120.4062   85.2459 F   0  0  0  0  0  0  0  0  0  0  0  0
  127.3345  122.4784   85.4196 F   0  0  0  0  0  0  0  0  0  0  0  0
  125.3922  121.9961   84.5713 F   0  0  0  0  0  0  0  0  0  0  0  0
  119.2893  122.3246   87.7124 H   0  0  0  0  0  0  0  0  0  0  0  0
  121.0891  124.7389   84.9811 H   0  0  0  0  0  0  0  0  0  0  0  0
  119.3271  124.8618   85.2325 H   0  0  0  0  0  0  0  0  0  0  0  0
  122.5614  121.7846   83.8244 H   0  0  0  0  0  0  0  0  0  0  0  0
  121.0548  122.6966   84.1089 H   0  0  0  0  0  0  0  0  0  0  0  0
  123.5993  120.9041   85.3011 H   0  0  0  0  0  0  0  0  0  0  0  0
  122.6677  121.6537   88.6337 H   0  0  0  0  0  0  0  0  0  0  0  0
  124.2141  121.7936   90.5689 H   0  0  0  0  0  0  0  0  0  0  0  0
  126.6771  121.8745   90.2010 H   0  0  0  0  0  0  0  0  0  0  0  0
  127.5777  121.8190   87.8834 H   0  0  0  0  0  0  0  0  0  0  0  0
  1  2  2  3
  2  3  1  0
  2  4  1  0
  4  5  2  3
  5  6  1  0
  5  7  1  0
  7  8  1  0
  8  9  2  0
  9 10  1  0
 10 11  2  0
 11 12  1  0
 12 13  2  0
 13 14  1  0
 14 15  1  0
 14 16  1  0
 14 17  1  0
 13  8  1  0
  1 18  1  0
  3 19  1  0
  3 20  1  0
  6 21  1  0
  6 22  1  0
  7 23  1  0
  9 24  1  0
 10 25  1  0
 11 26  1  0
 12 27  1  0
M  END
>  <loss>  (1) 
0.4265497624874115

>  <score>  (1) 
6.415734767913818

$$$$
WWGJSAKTVIHBMA-UHFFFAOYSA-N
     RDKit          3D

 27 27  0  0  0  0  0  0  0  0999 V2000
  119.2082  123.0776   86.9918 N   0  0  0  0  0  0  0  0  0  0  0  0
  120.2776  123.4225   86.3706 C   0  0  0  0  0  0  0  0  0  0  0  0
  120.2301  124.3655   85.4064 N   0  0  0  0  0  0  0  0  0  0  0  0
  121.4008  122.7588   86.7172 N   0  0  0  0  0  0  0  0  0  0  0  0
  122.1803  122.2672   85.8103 C   0  0  0  0  0  0  0  0  0  0  0  0
  121.9780  122.3239   84.4578 N   0  0  0  0  0  0  0  0  0  0  0  0
  123.3359  121.5687   86.0464 N   0  0  0  0  0  0  0  0  0  0  0  0
  124.2186  121.6527   87.1447 C   0  0  0  0  0  0  0  0  0  0  0  0
  123.7383  121.6961   88.4651 C   0  0  0  0  0  0  0  0  0  0  0  0
  124.5995  121.7769   89.5632 C   0  0  0  0  0  0  0  0  0  0  0  0
  125.9721  121.8155   89.3680 C   0  0  0  0  0  0  0  0  0  0  0  0
  126.4791  121.7759   88.0731 C   0  0  0  0  0  0  0  0  0  0  0  0
  125.6189  121.7013   86.9549 C   0  0  0  0  0  0  0  0  0  0  0  0
  126.2597  121.6270   85.5922 C   0  0  0  0  0  0  0  0  0  0  0  0
  126.3975  120.3492   85.1374 F   0  0  0  0  0  0  0  0  0  0  0  0
  127.5152  122.1647   85.5450 F   0  0  0  0  0  0  0  0  0  0  0  0
  125.5426  122.2850   84.6399 F   0  0  0  0  0  0  0  0  0  0  0  0
  119.2492  122.3574   87.7269 H   0  0  0  0  0  0  0  0  0  0  0  0
  121.0905  124.6391   84.9107 H   0  0  0  0  0  0  0  0  0  0  0  0
  119.3334  124.8118   85.1662 H   0  0  0  0  0  0  0  0  0  0  0  0
  122.6627  121.8989   83.8164 H   0  0  0  0  0  0  0  0  0  0  0  0
  121.1410  122.7915   84.0814 H   0  0  0  0  0  0  0  0  0  0  0  0
  123.5968  120.8865   85.3202 H   0  0  0  0  0  0  0  0  0  0  0  0
  122.6526  121.6655   88.6394 H   0  0  0  0  0  0  0  0  0  0  0  0
  124.1883  121.8099   90.5829 H   0  0  0  0  0  0  0  0  0  0  0  0
  126.6537  121.8770   90.2292 H   0  0  0  0  0  0  0  0  0  0  0  0
  127.5677  121.8031   87.9173 H   0  0  0  0  0  0  0  0  0  0  0  0
  1  2  2  3
  2  3  1  0
  2  4  1  0
  4  5  2  3
  5  6  1  0
  5  7  1  0
  7  8  1  0
  8  9  2  0
  9 10  1  0
 10 11  2  0
 11 12  1  0
 12 13  2  0
 13 14  1  0
 14 15  1  0
 14 16  1  0
 14 17  1  0
 13  8  1  0
  1 18  1  0
  3 19  1  0
  3 20  1  0
  6 21  1  0
  6 22  1  0
  7 23  1  0
  9 24  1  0
 10 25  1  0
 11 26  1  0
 12 27  1  0
M  END
>  <loss>  (2) 
0.43342238664627075

>  <score>  (2) 
6.373876094818115

$$$$
WWGJSAKTVIHBMA-UHFFFAOYSA-N
     RDKit          3D

 27 27  0  0  0  0  0  0  0  0999 V2000
  120.0051  124.2152   85.5063 N   0  0  0  0  0  0  0  0  0  0  0  0
  120.2986  123.4882   86.5309 C   0  0  0  0  0  0  0  0  0  0  0  0
  119.3710  123.2047   87.4705 N   0  0  0  0  0  0  0  0  0  0  0  0
  121.5397  122.9761   86.7117 N   0  0  0  0  0  0  0  0  0  0  0  0
  122.1257  122.2210   85.8413 C   0  0  0  0  0  0  0  0  0  0  0  0
  121.5933  121.7978   84.6552 N   0  0  0  0  0  0  0  0  0  0  0  0
  123.3752  121.6739   85.9770 N   0  0  0  0  0  0  0  0  0  0  0  0
  124.2401  121.7089   87.0898 C   0  0  0  0  0  0  0  0  0  0  0  0
  123.7351  121.7124   88.4020 C   0  0  0  0  0  0  0  0  0  0  0  0
  124.5765  121.7380   89.5176 C   0  0  0  0  0  0  0  0  0  0  0  0
  125.9532  121.7563   89.3479 C   0  0  0  0  0  0  0  0  0  0  0  0
  126.4835  121.7517   88.0613 C   0  0  0  0  0  0  0  0  0  0  0  0
  125.6432  121.7346   86.9260 C   0  0  0  0  0  0  0  0  0  0  0  0
  126.3024  121.6926   85.5710 C   0  0  0  0  0  0  0  0  0  0  0  0
  125.4023  121.5980   84.5536 F   0  0  0  0  0  0  0  0  0  0  0  0
  127.1434  120.6292   85.4212 F   0  0  0  0  0  0  0  0  0  0  0  0
  127.0612  122.7941   85.2934 F   0  0  0  0  0  0  0  0  0  0  0  0
  120.7243  124.4222   84.7986 H   0  0  0  0  0  0  0  0  0  0  0  0
  119.6216  122.6228   88.2826 H   0  0  0  0  0  0  0  0  0  0  0  0
  118.4129  123.5705   87.3751 H   0  0  0  0  0  0  0  0  0  0  0  0
  122.1455  121.1949   84.0288 H   0  0  0  0  0  0  0  0  0  0  0  0
  120.6400  122.0819   84.3880 H   0  0  0  0  0  0  0  0  0  0  0  0
  123.7308  121.1680   85.1533 H   0  0  0  0  0  0  0  0  0  0  0  0
  122.6459  121.6945   88.5551 H   0  0  0  0  0  0  0  0  0  0  0  0
  124.1471  121.7437   90.5303 H   0  0  0  0  0  0  0  0  0  0  0  0
  126.6198  121.7742   90.2227 H   0  0  0  0  0  0  0  0  0  0  0  0
  127.5752  121.7615   87.9262 H   0  0  0  0  0  0  0  0  0  0  0  0
  1  2  2  3
  2  3  1  0
  2  4  1  0
  4  5  2  3
  5  6  1  0
  5  7  1  0
  7  8  1  0
  8  9  2  0
  9 10  1  0
 10 11  2  0
 11 12  1  0
 12 13  2  0
 13 14  1  0
 14 15  1  0
 14 16  1  0
 14 17  1  0
 13  8  1  0
  1 18  1  0
  3 19  1  0
  3 20  1  0
  6 21  1  0
  6 22  1  0
  7 23  1  0
  9 24  1  0
 10 25  1  0
 11 26  1  0
 12 27  1  0
M  END
>  <loss>  (3) 
0.43188735842704773

>  <score>  (3) 
6.3175835609436035

$$$$
WWGJSAKTVIHBMA-UHFFFAOYSA-N
     RDKit          3D

 27 27  0  0  0  0  0  0  0  0999 V2000
  119.7613  124.0431   84.9095 N   0  0  0  0  0  0  0  0  0  0  0  0
  120.2370  123.6083   86.0190 C   0  0  0  0  0  0  0  0  0  0  0  0
  119.4315  123.4113   87.0842 N   0  0  0  0  0  0  0  0  0  0  0  0
  121.5705  123.4129   86.0701 N   0  0  0  0  0  0  0  0  0  0  0  0
  122.0391  122.2082   86.0652 C   0  0  0  0  0  0  0  0  0  0  0  0
  121.2926  121.0619   86.0011 N   0  0  0  0  0  0  0  0  0  0  0  0
  123.3643  121.8528   86.0996 N   0  0  0  0  0  0  0  0  0  0  0  0
  124.2713  121.8370   87.1865 C   0  0  0  0  0  0  0  0  0  0  0  0
  123.8359  121.8144   88.5224 C   0  0  0  0  0  0  0  0  0  0  0  0
  124.7320  121.7482   89.5947 C   0  0  0  0  0  0  0  0  0  0  0  0
  126.0963  121.6760   89.3591 C   0  0  0  0  0  0  0  0  0  0  0  0
  126.5601  121.6589   88.0488 C   0  0  0  0  0  0  0  0  0  0  0  0
  125.6653  121.7327   86.9575 C   0  0  0  0  0  0  0  0  0  0  0  0
  126.2604  121.6531   85.5737 C   0  0  0  0  0  0  0  0  0  0  0  0
  125.5306  122.3088   84.6228 F   0  0  0  0  0  0  0  0  0  0  0  0
  127.5141  122.1821   85.4980 F   0  0  0  0  0  0  0  0  0  0  0  0
  126.3704  120.3705   85.1284 F   0  0  0  0  0  0  0  0  0  0  0  0
  120.3858  124.1895   84.1036 H   0  0  0  0  0  0  0  0  0  0  0  0
  119.8248  123.0619   87.9697 H   0  0  0  0  0  0  0  0  0  0  0  0
  118.4235  123.6105   87.0115 H   0  0  0  0  0  0  0  0  0  0  0  0
  121.7584  120.1432   86.0028 H   0  0  0  0  0  0  0  0  0  0  0  0
  120.2654  121.1184   85.9512 H   0  0  0  0  0  0  0  0  0  0  0  0
  123.7590  121.5517   85.1972 H   0  0  0  0  0  0  0  0  0  0  0  0
  122.7566  121.8499   88.7316 H   0  0  0  0  0  0  0  0  0  0  0  0
  124.3532  121.7534   90.6274 H   0  0  0  0  0  0  0  0  0  0  0  0
  126.8042  121.6327   90.2000 H   0  0  0  0  0  0  0  0  0  0  0  0
  127.6411  121.5868   87.8583 H   0  0  0  0  0  0  0  0  0  0  0  0
  1  2  2  3
  2  3  1  0
  2  4  1  0
  4  5  2  3
  5  6  1  0
  5  7  1  0
  7  8  1  0
  8  9  2  0
  9 10  1  0
 10 11  2  0
 11 12  1  0
 12 13  2  0
 13 14  1  0
 14 15  1  0
 14 16  1  0
 14 17  1  0
 13  8  1  0
  1 18  1  0
  3 19  1  0
  3 20  1  0
  6 21  1  0
  6 22  1  0
  7 23  1  0
  9 24  1  0
 10 25  1  0
 11 26  1  0
 12 27  1  0
M  END
>  <loss>  (4) 
0.41524186730384827

>  <score>  (4) 
6.216434955596924

$$$$
WWGJSAKTVIHBMA-UHFFFAOYSA-N
     RDKit          3D

 27 27  0  0  0  0  0  0  0  0999 V2000
  119.9338  123.9090   85.4164 N   0  0  0  0  0  0  0  0  0  0  0  0
  120.1623  123.3671   86.5567 C   0  0  0  0  0  0  0  0  0  0  0  0
  119.1777  123.2471   87.4725 N   0  0  0  0  0  0  0  0  0  0  0  0
  121.4312  122.9794   86.7987 N   0  0  0  0  0  0  0  0  0  0  0  0
  122.0500  122.2459   85.9328 C   0  0  0  0  0  0  0  0  0  0  0  0
  121.5339  121.8111   84.7411 N   0  0  0  0  0  0  0  0  0  0  0  0
  123.3396  121.7867   86.0319 N   0  0  0  0  0  0  0  0  0  0  0  0
  124.2210  121.7901   87.1397 C   0  0  0  0  0  0  0  0  0  0  0  0
  123.7568  121.7141   88.4639 C   0  0  0  0  0  0  0  0  0  0  0  0
  124.6302  121.6670   89.5557 C   0  0  0  0  0  0  0  0  0  0  0  0
  126.0015  121.6683   89.3515 C   0  0  0  0  0  0  0  0  0  0  0  0
  126.4955  121.7054   88.0527 C   0  0  0  0  0  0  0  0  0  0  0  0
  125.6234  121.7606   86.9421 C   0  0  0  0  0  0  0  0  0  0  0  0
  126.2534  121.7436   85.5717 C   0  0  0  0  0  0  0  0  0  0  0  0
  126.6595  122.9739   85.1379 F   0  0  0  0  0  0  0  0  0  0  0  0
  127.3590  120.9500   85.4996 F   0  0  0  0  0  0  0  0  0  0  0  0
  125.4016  121.2825   84.6139 F   0  0  0  0  0  0  0  0  0  0  0  0
  120.6930  123.9951   84.7257 H   0  0  0  0  0  0  0  0  0  0  0  0
  119.3732  122.8102   88.3845 H   0  0  0  0  0  0  0  0  0  0  0  0
  118.2311  123.5922   87.2591 H   0  0  0  0  0  0  0  0  0  0  0  0
  122.1063  121.2278   84.1142 H   0  0  0  0  0  0  0  0  0  0  0  0
  120.5733  122.0673   84.4718 H   0  0  0  0  0  0  0  0  0  0  0  0
  123.7247  121.3773   85.1689 H   0  0  0  0  0  0  0  0  0  0  0  0
  122.6725  121.6910   88.6477 H   0  0  0  0  0  0  0  0  0  0  0  0
  124.2280  121.6288   90.5788 H   0  0  0  0  0  0  0  0  0  0  0  0
  126.6911  121.6402   90.2081 H   0  0  0  0  0  0  0  0  0  0  0  0
  127.5829  121.6916   87.8868 H   0  0  0  0  0  0  0  0  0  0  0  0
  1  2  2  3
  2  3  1  0
  2  4  1  0
  4  5  2  3
  5  6  1  0
  5  7  1  0
  7  8  1  0
  8  9  2  0
  9 10  1  0
 10 11  2  0
 11 12  1  0
 12 13  2  0
 13 14  1  0
 14 15  1  0
 14 16  1  0
 14 17  1  0
 13  8  1  0
  1 18  1  0
  3 19  1  0
  3 20  1  0
  6 21  1  0
  6 22  1  0
  7 23  1  0
  9 24  1  0
 10 25  1  0
 11 26  1  0
 12 27  1  0
M  END
>  <loss>  (5) 
0.4400392770767212

>  <score>  (5) 
6.33275842666626

$$$$
WWGJSAKTVIHBMA-UHFFFAOYSA-N
     RDKit          3D

 27 27  0  0  0  0  0  0  0  0999 V2000
  120.0439  123.9430   85.3960 N   0  0  0  0  0  0  0  0  0  0  0  0
  120.1950  123.3530   86.5334 C   0  0  0  0  0  0  0  0  0  0  0  0
  119.2289  123.3934   87.4752 N   0  0  0  0  0  0  0  0  0  0  0  0
  121.3072  122.6297   86.8098 N   0  0  0  0  0  0  0  0  0  0  0  0
  122.1591  122.2940   85.8964 C   0  0  0  0  0  0  0  0  0  0  0  0
  122.0781  122.6141   84.5687 N   0  0  0  0  0  0  0  0  0  0  0  0
  123.3178  121.5853   86.0959 N   0  0  0  0  0  0  0  0  0  0  0  0
  124.2337  121.6728   87.1677 C   0  0  0  0  0  0  0  0  0  0  0  0
  123.7923  121.6787   88.5035 C   0  0  0  0  0  0  0  0  0  0  0  0
  124.6833  121.7398   89.5789 C   0  0  0  0  0  0  0  0  0  0  0  0
  126.0497  121.7840   89.3463 C   0  0  0  0  0  0  0  0  0  0  0  0
  126.5194  121.7588   88.0375 C   0  0  0  0  0  0  0  0  0  0  0  0
  125.6289  121.6979   86.9412 C   0  0  0  0  0  0  0  0  0  0  0  0
  126.2445  121.6548   85.5656 C   0  0  0  0  0  0  0  0  0  0  0  0
  125.3108  121.4939   84.5836 F   0  0  0  0  0  0  0  0  0  0  0  0
  127.1221  120.6215   85.4139 F   0  0  0  0  0  0  0  0  0  0  0  0
  126.9394  122.7809   85.2257 F   0  0  0  0  0  0  0  0  0  0  0  0
  120.7929  123.9005   84.6902 H   0  0  0  0  0  0  0  0  0  0  0  0
  119.3686  122.9159   88.3771 H   0  0  0  0  0  0  0  0  0  0  0  0
  118.3521  123.9018   87.2920 H   0  0  0  0  0  0  0  0  0  0  0  0
  122.8106  122.2981   83.9172 H   0  0  0  0  0  0  0  0  0  0  0  0
  121.2846  123.1710   84.2207 H   0  0  0  0  0  0  0  0  0  0  0  0
  123.5507  120.8971   85.3657 H   0  0  0  0  0  0  0  0  0  0  0  0
  122.7124  121.6338   88.7080 H   0  0  0  0  0  0  0  0  0  0  0  0
  124.3005  121.7528   90.6101 H   0  0  0  0  0  0  0  0  0  0  0  0
  126.7550  121.8385   90.1886 H   0  0  0  0  0  0  0  0  0  0  0  0
  127.6033  121.7867   87.8520 H   0  0  0  0  0  0  0  0  0  0  0  0
  1  2  2  3
  2  3  1  0
  2  4  1  0
  4  5  2  3
  5  6  1  0
  5  7  1  0
  7  8  1  0
  8  9  2  0
  9 10  1  0
 10 11  2  0
 11 12  1  0
 12 13  2  0
 13 14  1  0
 14 15  1  0
 14 16  1  0
 14 17  1  0
 13  8  1  0
  1 18  1  0
  3 19  1  0
  3 20  1  0
  6 21  1  0
  6 22  1  0
  7 23  1  0
  9 24  1  0
 10 25  1  0
 11 26  1  0
 12 27  1  0
M  END
>  <loss>  (6) 
0.42854002118110657

>  <score>  (6) 
6.261629104614258

$$$$
WWGJSAKTVIHBMA-UHFFFAOYSA-N
     RDKit          3D

 27 27  0  0  0  0  0  0  0  0999 V2000
  119.9061  123.8579   85.4116 N   0  0  0  0  0  0  0  0  0  0  0  0
  120.1633  123.3731   86.5713 C   0  0  0  0  0  0  0  0  0  0  0  0
  119.2015  123.2979   87.5156 N   0  0  0  0  0  0  0  0  0  0  0  0
  121.4383  122.9983   86.8010 N   0  0  0  0  0  0  0  0  0  0  0  0
  122.0426  122.2369   85.9489 C   0  0  0  0  0  0  0  0  0  0  0  0
  121.5044  121.7589   84.7839 N   0  0  0  0  0  0  0  0  0  0  0  0
  123.3357  121.7857   86.0380 N   0  0  0  0  0  0  0  0  0  0  0  0
  124.2257  121.7946   87.1389 C   0  0  0  0  0  0  0  0  0  0  0  0
  123.7711  121.7383   88.4674 C   0  0  0  0  0  0  0  0  0  0  0  0
  124.6525  121.6965   89.5530 C   0  0  0  0  0  0  0  0  0  0  0  0
  126.0221  121.6834   89.3383 C   0  0  0  0  0  0  0  0  0  0  0  0
  126.5064  121.7008   88.0355 C   0  0  0  0  0  0  0  0  0  0  0  0
  125.6262  121.7505   86.9310 C   0  0  0  0  0  0  0  0  0  0  0  0
  126.2453  121.7118   85.5561 C   0  0  0  0  0  0  0  0  0  0  0  0
  127.2796  122.5896   85.3938 F   0  0  0  0  0  0  0  0  0  0  0  0
  126.7523  120.4893   85.2305 F   0  0  0  0  0  0  0  0  0  0  0  0
  125.3512  122.0168   84.5747 F   0  0  0  0  0  0  0  0  0  0  0  0
  120.6481  123.9102   84.6991 H   0  0  0  0  0  0  0  0  0  0  0  0
  119.4199  122.9066   88.4431 H   0  0  0  0  0  0  0  0  0  0  0  0
  118.2494  123.6317   87.3087 H   0  0  0  0  0  0  0  0  0  0  0  0
  122.0664  121.1558   84.1663 H   0  0  0  0  0  0  0  0  0  0  0  0
  120.5376  122.0023   84.5252 H   0  0  0  0  0  0  0  0  0  0  0  0
  123.7166  121.3787   85.1719 H   0  0  0  0  0  0  0  0  0  0  0  0
  122.6881  121.7268   88.6598 H   0  0  0  0  0  0  0  0  0  0  0  0
  124.2579  121.6740   90.5795 H   0  0  0  0  0  0  0  0  0  0  0  0
  126.7180  121.6595   90.1898 H   0  0  0  0  0  0  0  0  0  0  0  0
  127.5922  121.6756   87.8614 H   0  0  0  0  0  0  0  0  0  0  0  0
  1  2  2  3
  2  3  1  0
  2  4  1  0
  4  5  2  3
  5  6  1  0
  5  7  1  0
  7  8  1  0
  8  9  2  0
  9 10  1  0
 10 11  2  0
 11 12  1  0
 12 13  2  0
 13 14  1  0
 14 15  1  0
 14 16  1  0
 14 17  1  0
 13  8  1  0
  1 18  1  0
  3 19  1  0
  3 20  1  0
  6 21  1  0
  6 22  1  0
  7 23  1  0
  9 24  1  0
 10 25  1  0
 11 26  1  0
 12 27  1  0
M  END
>  <loss>  (7) 
0.43664073944091797

>  <score>  (7) 
6.263701438903809

$$$$
WWGJSAKTVIHBMA-UHFFFAOYSA-N
     RDKit          3D

 27 27  0  0  0  0  0  0  0  0999 V2000
  120.5143  124.7772   85.9512 N   0  0  0  0  0  0  0  0  0  0  0  0
  120.3506  123.5380   86.2449 C   0  0  0  0  0  0  0  0  0  0  0  0
  119.1190  122.9875   86.2095 N   0  0  0  0  0  0  0  0  0  0  0  0
  121.4617  122.8693   86.6198 N   0  0  0  0  0  0  0  0  0  0  0  0
  122.1876  122.2568   85.7425 C   0  0  0  0  0  0  0  0  0  0  0  0
  121.9358  122.1826   84.3991 N   0  0  0  0  0  0  0  0  0  0  0  0
  123.3256  121.5408   86.0099 N   0  0  0  0  0  0  0  0  0  0  0  0
  124.1986  121.6363   87.1150 C   0  0  0  0  0  0  0  0  0  0  0  0
  123.7070  121.6869   88.4309 C   0  0  0  0  0  0  0  0  0  0  0  0
  124.5585  121.7790   89.5356 C   0  0  0  0  0  0  0  0  0  0  0  0
  125.9326  121.8220   89.3517 C   0  0  0  0  0  0  0  0  0  0  0  0
  126.4507  121.7753   88.0615 C   0  0  0  0  0  0  0  0  0  0  0  0
  125.6003  121.6893   86.9366 C   0  0  0  0  0  0  0  0  0  0  0  0
  126.2528  121.6081   85.5800 C   0  0  0  0  0  0  0  0  0  0  0  0
  127.4707  122.2195   85.5372 F   0  0  0  0  0  0  0  0  0  0  0  0
  125.5216  122.1894   84.5824 F   0  0  0  0  0  0  0  0  0  0  0  0
  126.4671  120.3249   85.1780 F   0  0  0  0  0  0  0  0  0  0  0  0
  121.4562  125.1932   85.9796 H   0  0  0  0  0  0  0  0  0  0  0  0
  118.9924  121.9930   86.4459 H   0  0  0  0  0  0  0  0  0  0  0  0
  118.3056  123.5618   85.9461 H   0  0  0  0  0  0  0  0  0  0  0  0
  122.5797  121.6674   83.7821 H   0  0  0  0  0  0  0  0  0  0  0  0
  121.1023  122.6421   84.0053 H   0  0  0  0  0  0  0  0  0  0  0  0
  123.5793  120.8337   85.3053 H   0  0  0  0  0  0  0  0  0  0  0  0
  122.6200  121.6531   88.5963 H   0  0  0  0  0  0  0  0  0  0  0  0
  124.1386  121.8175   90.5516 H   0  0  0  0  0  0  0  0  0  0  0  0
  126.6066  121.8923   90.2182 H   0  0  0  0  0  0  0  0  0  0  0  0
  127.5404  121.8059   87.9147 H   0  0  0  0  0  0  0  0  0  0  0  0
  1  2  2  3
  2  3  1  0
  2  4  1  0
  4  5  2  3
  5  6  1  0
  5  7  1  0
  7  8  1  0
  8  9  2  0
  9 10  1  0
 10 11  2  0
 11 12  1  0
 12 13  2  0
 13 14  1  0
 14 15  1  0
 14 16  1  0
 14 17  1  0
 13  8  1  0
  1 18  1  0
  3 19  1  0
  3 20  1  0
  6 21  1  0
  6 22  1  0
  7 23  1  0
  9 24  1  0
 10 25  1  0
 11 26  1  0
 12 27  1  0
M  END
>  <loss>  (8) 
0.4403414726257324

>  <score>  (8) 
6.267813682556152

$$$$
WWGJSAKTVIHBMA-UHFFFAOYSA-N
     RDKit          3D

 27 27  0  0  0  0  0  0  0  0999 V2000
  119.7250  124.0722   84.9314 N   0  0  0  0  0  0  0  0  0  0  0  0
  120.2471  123.6240   86.0154 C   0  0  0  0  0  0  0  0  0  0  0  0
  119.4890  123.4648   87.1204 N   0  0  0  0  0  0  0  0  0  0  0  0
  121.5735  123.3769   85.9725 N   0  0  0  0  0  0  0  0  0  0  0  0
  122.0243  122.1768   86.1406 C   0  0  0  0  0  0  0  0  0  0  0  0
  121.2716  121.0621   86.3946 N   0  0  0  0  0  0  0  0  0  0  0  0
  123.3460  121.8132   86.1279 N   0  0  0  0  0  0  0  0  0  0  0  0
  124.2704  121.7789   87.1941 C   0  0  0  0  0  0  0  0  0  0  0  0
  123.8414  121.7998   88.5326 C   0  0  0  0  0  0  0  0  0  0  0  0
  124.7441  121.7640   89.5993 C   0  0  0  0  0  0  0  0  0  0  0  0
  126.1079  121.7049   89.3534 C   0  0  0  0  0  0  0  0  0  0  0  0
  126.5646  121.6845   88.0395 C   0  0  0  0  0  0  0  0  0  0  0  0
  125.6626  121.7273   86.9530 C   0  0  0  0  0  0  0  0  0  0  0  0
  126.2475  121.6652   85.5648 C   0  0  0  0  0  0  0  0  0  0  0  0
  125.3040  121.4878   84.5967 F   0  0  0  0  0  0  0  0  0  0  0  0
  127.1409  120.6458   85.3897 F   0  0  0  0  0  0  0  0  0  0  0  0
  126.9169  122.8018   85.2273 F   0  0  0  0  0  0  0  0  0  0  0  0
  120.3074  124.1921   84.0904 H   0  0  0  0  0  0  0  0  0  0  0  0
  119.9121  123.1049   87.9878 H   0  0  0  0  0  0  0  0  0  0  0  0
  118.4872  123.7031   87.0964 H   0  0  0  0  0  0  0  0  0  0  0  0
  121.7298  120.1473   86.5131 H   0  0  0  0  0  0  0  0  0  0  0  0
  120.2470  121.1381   86.4671 H   0  0  0  0  0  0  0  0  0  0  0  0
  123.7167  121.5243   85.2114 H   0  0  0  0  0  0  0  0  0  0  0  0
  122.7635  121.8456   88.7470 H   0  0  0  0  0  0  0  0  0  0  0  0
  124.3726  121.7827   90.6345 H   0  0  0  0  0  0  0  0  0  0  0  0
  126.8218  121.6744   90.1896 H   0  0  0  0  0  0  0  0  0  0  0  0
  127.6458  121.6343   87.8433 H   0  0  0  0  0  0  0  0  0  0  0  0
  1  2  2  3
  2  3  1  0
  2  4  1  0
  4  5  2  3
  5  6  1  0
  5  7  1  0
  7  8  1  0
  8  9  2  0
  9 10  1  0
 10 11  2  0
 11 12  1  0
 12 13  2  0
 13 14  1  0
 14 15  1  0
 14 16  1  0
 14 17  1  0
 13  8  1  0
  1 18  1  0
  3 19  1  0
  3 20  1  0
  6 21  1  0
  6 22  1  0
  7 23  1  0
  9 24  1  0
 10 25  1  0
 11 26  1  0
 12 27  1  0
M  END
>  <loss>  (9) 
0.4196867048740387

>  <score>  (9) 
6.139346122741699

$$$$
WWGJSAKTVIHBMA-UHFFFAOYSA-N
     RDKit          3D

 27 27  0  0  0  0  0  0  0  0999 V2000
  120.0270  124.1728   85.4673 N   0  0  0  0  0  0  0  0  0  0  0  0
  120.1875  123.3975   86.4770 C   0  0  0  0  0  0  0  0  0  0  0  0
  119.1404  123.0570   87.2579 N   0  0  0  0  0  0  0  0  0  0  0  0
  121.4482  122.9933   86.7347 N   0  0  0  0  0  0  0  0  0  0  0  0
  122.0572  122.2267   85.8908 C   0  0  0  0  0  0  0  0  0  0  0  0
  121.5382  121.7707   84.7084 N   0  0  0  0  0  0  0  0  0  0  0  0
  123.3377  121.7470   86.0078 N   0  0  0  0  0  0  0  0  0  0  0  0
  124.2183  121.7726   87.1159 C   0  0  0  0  0  0  0  0  0  0  0  0
  123.7540  121.7077   88.4407 C   0  0  0  0  0  0  0  0  0  0  0  0
  124.6271  121.6825   89.5335 C   0  0  0  0  0  0  0  0  0  0  0  0
  125.9984  121.6953   89.3301 C   0  0  0  0  0  0  0  0  0  0  0  0
  126.4929  121.7219   88.0312 C   0  0  0  0  0  0  0  0  0  0  0  0
  125.6211  121.7550   86.9195 C   0  0  0  0  0  0  0  0  0  0  0  0
  126.2522  121.7280   85.5498 C   0  0  0  0  0  0  0  0  0  0  0  0
  126.8133  122.9173   85.1793 F   0  0  0  0  0  0  0  0  0  0  0  0
  127.2489  120.8054   85.4367 F   0  0  0  0  0  0  0  0  0  0  0  0
  125.3547  121.4278   84.5699 F   0  0  0  0  0  0  0  0  0  0  0  0
  120.8335  124.4256   84.8787 H   0  0  0  0  0  0  0  0  0  0  0  0
  119.2815  122.4338   88.0657 H   0  0  0  0  0  0  0  0  0  0  0  0
  118.2002  123.4203   87.0459 H   0  0  0  0  0  0  0  0  0  0  0  0
  122.1026  121.1612   84.0993 H   0  0  0  0  0  0  0  0  0  0  0  0
  120.5836  122.0372   84.4281 H   0  0  0  0  0  0  0  0  0  0  0  0
  123.7157  121.3003   85.1601 H   0  0  0  0  0  0  0  0  0  0  0  0
  122.6698  121.6758   88.6241 H   0  0  0  0  0  0  0  0  0  0  0  0
  124.2245  121.6525   90.5567 H   0  0  0  0  0  0  0  0  0  0  0  0
  126.6876  121.6844   90.1873 H   0  0  0  0  0  0  0  0  0  0  0  0
  127.5805  121.7171   87.8661 H   0  0  0  0  0  0  0  0  0  0  0  0
  1  2  2  3
  2  3  1  0
  2  4  1  0
  4  5  2  3
  5  6  1  0
  5  7  1  0
  7  8  1  0
  8  9  2  0
  9 10  1  0
 10 11  2  0
 11 12  1  0
 12 13  2  0
 13 14  1  0
 14 15  1  0
 14 16  1  0
 14 17  1  0
 13  8  1  0
  1 18  1  0
  3 19  1  0
  3 20  1  0
  6 21  1  0
  6 22  1  0
  7 23  1  0
  9 24  1  0
 10 25  1  0
 11 26  1  0
 12 27  1  0
M  END
>  <loss>  (10) 
0.4415208101272583

>  <score>  (10) 
6.246829986572266

$$$$
WWGJSAKTVIHBMA-UHFFFAOYSA-N
     RDKit          3D

 27 27  0  0  0  0  0  0  0  0999 V2000
  119.2081  123.3151   87.2187 N   0  0  0  0  0  0  0  0  0  0  0  0
  120.1760  123.3054   86.3751 C   0  0  0  0  0  0  0  0  0  0  0  0
  120.0694  123.9776   85.2098 N   0  0  0  0  0  0  0  0  0  0  0  0
  121.2487  122.5609   86.7172 N   0  0  0  0  0  0  0  0  0  0  0  0
  122.1916  122.3346   85.8619 C   0  0  0  0  0  0  0  0  0  0  0  0
  122.2226  122.7684   84.5641 N   0  0  0  0  0  0  0  0  0  0  0  0
  123.3167  121.5872   86.0956 N   0  0  0  0  0  0  0  0  0  0  0  0
  124.2239  121.6571   87.1747 C   0  0  0  0  0  0  0  0  0  0  0  0
  123.7730  121.6994   88.5055 C   0  0  0  0  0  0  0  0  0  0  0  0
  124.6587  121.7664   89.5848 C   0  0  0  0  0  0  0  0  0  0  0  0
  126.0271  121.7918   89.3598 C   0  0  0  0  0  0  0  0  0  0  0  0
  126.5053  121.7528   88.0540 C   0  0  0  0  0  0  0  0  0  0  0  0
  125.6202  121.6921   86.9546 C   0  0  0  0  0  0  0  0  0  0  0  0
  126.2303  121.6175   85.5779 C   0  0  0  0  0  0  0  0  0  0  0  0
  126.3654  120.3390   85.1238 F   0  0  0  0  0  0  0  0  0  0  0  0
  127.4813  122.1624   85.5006 F   0  0  0  0  0  0  0  0  0  0  0  0
  125.4879  122.2683   84.6402 F   0  0  0  0  0  0  0  0  0  0  0  0
  119.2939  122.8006   88.1068 H   0  0  0  0  0  0  0  0  0  0  0  0
  120.8484  123.9671   84.5360 H   0  0  0  0  0  0  0  0  0  0  0  0
  119.2090  124.5012   84.9941 H   0  0  0  0  0  0  0  0  0  0  0  0
  123.0240  122.5330   83.9614 H   0  0  0  0  0  0  0  0  0  0  0  0
  121.4446  123.3304   84.1902 H   0  0  0  0  0  0  0  0  0  0  0  0
  123.5301  120.8741   85.3836 H   0  0  0  0  0  0  0  0  0  0  0  0
  122.6911  121.6792   88.7033 H   0  0  0  0  0  0  0  0  0  0  0  0
  124.2702  121.7989   90.6134 H   0  0  0  0  0  0  0  0  0  0  0  0
  126.7279  121.8422   90.2062 H   0  0  0  0  0  0  0  0  0  0  0  0
  127.5905  121.7695   87.8746 H   0  0  0  0  0  0  0  0  0  0  0  0
  1  2  2  3
  2  3  1  0
  2  4  1  0
  4  5  2  3
  5  6  1  0
  5  7  1  0
  7  8  1  0
  8  9  2  0
  9 10  1  0
 10 11  2  0
 11 12  1  0
 12 13  2  0
 13 14  1  0
 14 15  1  0
 14 16  1  0
 14 17  1  0
 13  8  1  0
  1 18  1  0
  3 19  1  0
  3 20  1  0
  6 21  1  0
  6 22  1  0
  7 23  1  0
  9 24  1  0
 10 25  1  0
 11 26  1  0
 12 27  1  0
M  END
>  <loss>  (11) 
0.4341142475605011

>  <score>  (11) 
6.2026262283325195

$$$$
WWGJSAKTVIHBMA-UHFFFAOYSA-N
     RDKit          3D

 27 27  0  0  0  0  0  0  0  0999 V2000
  120.1911  124.2629   85.5203 N   0  0  0  0  0  0  0  0  0  0  0  0
  120.2564  123.4187   86.4937 C   0  0  0  0  0  0  0  0  0  0  0  0
  119.1748  123.1465   87.2542 N   0  0  0  0  0  0  0  0  0  0  0  0
  121.3945  122.7341   86.7601 N   0  0  0  0  0  0  0  0  0  0  0  0
  122.1524  122.2582   85.8267 C   0  0  0  0  0  0  0  0  0  0  0  0
  121.9429  122.3807   84.4808 N   0  0  0  0  0  0  0  0  0  0  0  0
  123.3252  121.5753   86.0236 N   0  0  0  0  0  0  0  0  0  0  0  0
  124.2149  121.6509   87.1151 C   0  0  0  0  0  0  0  0  0  0  0  0
  123.7367  121.6973   88.4367 C   0  0  0  0  0  0  0  0  0  0  0  0
  124.6002  121.7754   89.5327 C   0  0  0  0  0  0  0  0  0  0  0  0
  125.9725  121.8120   89.3331 C   0  0  0  0  0  0  0  0  0  0  0  0
  126.4763  121.7663   88.0368 C   0  0  0  0  0  0  0  0  0  0  0  0
  125.6140  121.6788   86.9212 C   0  0  0  0  0  0  0  0  0  0  0  0
  126.2461  121.6687   85.5527 C   0  0  0  0  0  0  0  0  0  0  0  0
  127.2803  120.7880   85.4597 F   0  0  0  0  0  0  0  0  0  0  0  0
  125.3710  121.3172   84.5671 F   0  0  0  0  0  0  0  0  0  0  0  0
  126.7530  122.8781   85.1700 F   0  0  0  0  0  0  0  0  0  0  0  0
  121.0269  124.4580   84.9508 H   0  0  0  0  0  0  0  0  0  0  0  0
  119.2459  122.4694   88.0272 H   0  0  0  0  0  0  0  0  0  0  0  0
  118.2784  123.6158   87.0615 H   0  0  0  0  0  0  0  0  0  0  0  0
  122.6093  121.9631   83.8157 H   0  0  0  0  0  0  0  0  0  0  0  0
  121.1186  122.8906   84.1323 H   0  0  0  0  0  0  0  0  0  0  0  0
  123.5916  120.9200   85.2749 H   0  0  0  0  0  0  0  0  0  0  0  0
  122.6512  121.6714   88.6129 H   0  0  0  0  0  0  0  0  0  0  0  0
  124.1917  121.8079   90.5535 H   0  0  0  0  0  0  0  0  0  0  0  0
  126.6565  121.8765   90.1922 H   0  0  0  0  0  0  0  0  0  0  0  0
  127.5643  121.7989   87.8780 H   0  0  0  0  0  0  0  0  0  0  0  0
  1  2  2  3
  2  3  1  0
  2  4  1  0
  4  5  2  3
  5  6  1  0
  5  7  1  0
  7  8  1  0
  8  9  2  0
  9 10  1  0
 10 11  2  0
 11 12  1  0
 12 13  2  0
 13 14  1  0
 14 15  1  0
 14 16  1  0
 14 17  1  0
 13  8  1  0
  1 18  1  0
  3 19  1  0
  3 20  1  0
  6 21  1  0
  6 22  1  0
  7 23  1  0
  9 24  1  0
 10 25  1  0
 11 26  1  0
 12 27  1  0
M  END
>  <loss>  (12) 
0.4385219216346741

>  <score>  (12) 
6.217549800872803

$$$$
WWGJSAKTVIHBMA-UHFFFAOYSA-N
     RDKit          3D

 27 27  0  0  0  0  0  0  0  0999 V2000
  119.7418  123.5265   85.4418 N   0  0  0  0  0  0  0  0  0  0  0  0
  120.1204  123.2769   86.6497 C   0  0  0  0  0  0  0  0  0  0  0  0
  119.4030  123.7059   87.7094 N   0  0  0  0  0  0  0  0  0  0  0  0
  121.2253  122.5341   86.9026 N   0  0  0  0  0  0  0  0  0  0  0  0
  122.1164  122.2889   85.9978 C   0  0  0  0  0  0  0  0  0  0  0  0
  122.0878  122.7329   84.7041 N   0  0  0  0  0  0  0  0  0  0  0  0
  123.2708  121.5681   86.1775 N   0  0  0  0  0  0  0  0  0  0  0  0
  124.2143  121.6574   87.2250 C   0  0  0  0  0  0  0  0  0  0  0  0
  123.8083  121.6569   88.5720 C   0  0  0  0  0  0  0  0  0  0  0  0
  124.7272  121.7196   89.6237 C   0  0  0  0  0  0  0  0  0  0  0  0
  126.0866  121.7719   89.3551 C   0  0  0  0  0  0  0  0  0  0  0  0
  126.5217  121.7531   88.0343 C   0  0  0  0  0  0  0  0  0  0  0  0
  125.6028  121.6907   86.9617 C   0  0  0  0  0  0  0  0  0  0  0  0
  126.1821  121.6551   85.5702 C   0  0  0  0  0  0  0  0  0  0  0  0
  126.3049  120.3833   85.0913 F   0  0  0  0  0  0  0  0  0  0  0  0
  127.4327  122.1962   85.5068 F   0  0  0  0  0  0  0  0  0  0  0  0
  125.4431  122.3254   84.6369 F   0  0  0  0  0  0  0  0  0  0  0  0
  120.3032  123.1904   84.6463 H   0  0  0  0  0  0  0  0  0  0  0  0
  119.7219  123.4964   88.6661 H   0  0  0  0  0  0  0  0  0  0  0  0
  118.5365  124.2428   87.5614 H   0  0  0  0  0  0  0  0  0  0  0  0
  122.8486  122.4822   84.0566 H   0  0  0  0  0  0  0  0  0  0  0  0
  121.3054  123.3178   84.3775 H   0  0  0  0  0  0  0  0  0  0  0  0
  123.4768  120.8679   85.4507 H   0  0  0  0  0  0  0  0  0  0  0  0
  122.7345  121.6055   88.8049 H   0  0  0  0  0  0  0  0  0  0  0  0
  124.3717  121.7274   90.6646 H   0  0  0  0  0  0  0  0  0  0  0  0
  126.8137  121.8276   90.1786 H   0  0  0  0  0  0  0  0  0  0  0  0
  127.6001  121.7875   87.8203 H   0  0  0  0  0  0  0  0  0  0  0  0
  1  2  2  3
  2  3  1  0
  2  4  1  0
  4  5  2  3
  5  6  1  0
  5  7  1  0
  7  8  1  0
  8  9  2  0
  9 10  1  0
 10 11  2  0
 11 12  1  0
 12 13  2  0
 13 14  1  0
 14 15  1  0
 14 16  1  0
 14 17  1  0
 13  8  1  0
  1 18  1  0
  3 19  1  0
  3 20  1  0
  6 21  1  0
  6 22  1  0
  7 23  1  0
  9 24  1  0
 10 25  1  0
 11 26  1  0
 12 27  1  0
M  END
>  <loss>  (13) 
0.43427571654319763

>  <score>  (13) 
6.183252334594727

$$$$
WWGJSAKTVIHBMA-UHFFFAOYSA-N
     RDKit          3D

 27 27  0  0  0  0  0  0  0  0999 V2000
  119.7224  123.5083   85.4605 N   0  0  0  0  0  0  0  0  0  0  0  0
  120.1133  123.2689   86.6666 C   0  0  0  0  0  0  0  0  0  0  0  0
  119.4053  123.7046   87.7300 N   0  0  0  0  0  0  0  0  0  0  0  0
  121.2224  122.5307   86.9145 N   0  0  0  0  0  0  0  0  0  0  0  0
  122.1105  122.2893   86.0056 C   0  0  0  0  0  0  0  0  0  0  0  0
  122.0743  122.7334   84.7121 N   0  0  0  0  0  0  0  0  0  0  0  0
  123.2686  121.5732   86.1800 N   0  0  0  0  0  0  0  0  0  0  0  0
  124.2126  121.6611   87.2272 C   0  0  0  0  0  0  0  0  0  0  0  0
  123.8072  121.6610   88.5743 C   0  0  0  0  0  0  0  0  0  0  0  0
  124.7265  121.7223   89.6257 C   0  0  0  0  0  0  0  0  0  0  0  0
  126.0859  121.7727   89.3566 C   0  0  0  0  0  0  0  0  0  0  0  0
  126.5205  121.7534   88.0357 C   0  0  0  0  0  0  0  0  0  0  0  0
  125.6011  121.6924   86.9635 C   0  0  0  0  0  0  0  0  0  0  0  0
  126.1798  121.6561   85.5717 C   0  0  0  0  0  0  0  0  0  0  0  0
  126.2894  120.3850   85.0879 F   0  0  0  0  0  0  0  0  0  0  0  0
  127.4359  122.1846   85.5102 F   0  0  0  0  0  0  0  0  0  0  0  0
  125.4477  122.3376   84.6411 F   0  0  0  0  0  0  0  0  0  0  0  0
  120.2767  123.1672   84.6622 H   0  0  0  0  0  0  0  0  0  0  0  0
  119.7341  123.5032   88.6851 H   0  0  0  0  0  0  0  0  0  0  0  0
  118.5362  124.2383   87.5863 H   0  0  0  0  0  0  0  0  0  0  0  0
  122.8333  122.4861   84.0613 H   0  0  0  0  0  0  0  0  0  0  0  0
  121.2880  123.3152   84.3892 H   0  0  0  0  0  0  0  0  0  0  0  0
  123.4774  120.8784   85.4490 H   0  0  0  0  0  0  0  0  0  0  0  0
  122.7333  121.6111   88.8076 H   0  0  0  0  0  0  0  0  0  0  0  0
  124.3714  121.7306   90.6668 H   0  0  0  0  0  0  0  0  0  0  0  0
  126.8134  121.8273   90.1799 H   0  0  0  0  0  0  0  0  0  0  0  0
  127.5989  121.7863   87.8213 H   0  0  0  0  0  0  0  0  0  0  0  0
  1  2  2  3
  2  3  1  0
  2  4  1  0
  4  5  2  3
  5  6  1  0
  5  7  1  0
  7  8  1  0
  8  9  2  0
  9 10  1  0
 10 11  2  0
 11 12  1  0
 12 13  2  0
 13 14  1  0
 14 15  1  0
 14 16  1  0
 14 17  1  0
 13  8  1  0
  1 18  1  0
  3 19  1  0
  3 20  1  0
  6 21  1  0
  6 22  1  0
  7 23  1  0
  9 24  1  0
 10 25  1  0
 11 26  1  0
 12 27  1  0
M  END
>  <loss>  (14) 
0.43389347195625305

>  <score>  (14) 
6.158660888671875

$$$$
WWGJSAKTVIHBMA-UHFFFAOYSA-N
     RDKit          3D

 27 27  0  0  0  0  0  0  0  0999 V2000
  120.0166  123.8865   85.4243 N   0  0  0  0  0  0  0  0  0  0  0  0
  120.1750  123.2947   86.5597 C   0  0  0  0  0  0  0  0  0  0  0  0
  119.2228  123.3527   87.5150 N   0  0  0  0  0  0  0  0  0  0  0  0
  121.2761  122.5503   86.8211 N   0  0  0  0  0  0  0  0  0  0  0  0
  122.1698  122.2944   85.9222 C   0  0  0  0  0  0  0  0  0  0  0  0
  122.1540  122.7308   84.6262 N   0  0  0  0  0  0  0  0  0  0  0  0
  123.3152  121.5673   86.1221 N   0  0  0  0  0  0  0  0  0  0  0  0
  124.2373  121.6527   87.1857 C   0  0  0  0  0  0  0  0  0  0  0  0
  123.7992  121.7058   88.5208 C   0  0  0  0  0  0  0  0  0  0  0  0
  124.6951  121.7935   89.5897 C   0  0  0  0  0  0  0  0  0  0  0  0
  126.0606  121.8333   89.3484 C   0  0  0  0  0  0  0  0  0  0  0  0
  126.5252  121.7812   88.0377 C   0  0  0  0  0  0  0  0  0  0  0  0
  125.6298  121.6839   86.9493 C   0  0  0  0  0  0  0  0  0  0  0  0
  126.2202  121.6674   85.5624 C   0  0  0  0  0  0  0  0  0  0  0  0
  125.4658  122.3581   84.6635 F   0  0  0  0  0  0  0  0  0  0  0  0
  127.4635  122.2261   85.5087 F   0  0  0  0  0  0  0  0  0  0  0  0
  126.3656  120.4140   85.0393 F   0  0  0  0  0  0  0  0  0  0  0  0
  120.7541  123.8312   84.7075 H   0  0  0  0  0  0  0  0  0  0  0  0
  119.3669  122.8739   88.4155 H   0  0  0  0  0  0  0  0  0  0  0  0
  118.3523  123.8758   87.3433 H   0  0  0  0  0  0  0  0  0  0  0  0
  122.9174  122.4703   83.9857 H   0  0  0  0  0  0  0  0  0  0  0  0
  121.3786  123.3199   84.2906 H   0  0  0  0  0  0  0  0  0  0  0  0
  123.5307  120.8657   85.3995 H   0  0  0  0  0  0  0  0  0  0  0  0
  122.7196  121.6774   88.7300 H   0  0  0  0  0  0  0  0  0  0  0  0
  124.3177  121.8310   90.6222 H   0  0  0  0  0  0  0  0  0  0  0  0
  126.7701  121.9055   90.1859 H   0  0  0  0  0  0  0  0  0  0  0  0
  127.6078  121.8164   87.8458 H   0  0  0  0  0  0  0  0  0  0  0  0
  1  2  2  3
  2  3  1  0
  2  4  1  0
  4  5  2  3
  5  6  1  0
  5  7  1  0
  7  8  1  0
  8  9  2  0
  9 10  1  0
 10 11  2  0
 11 12  1  0
 12 13  2  0
 13 14  1  0
 14 15  1  0
 14 16  1  0
 14 17  1  0
 13  8  1  0
  1 18  1  0
  3 19  1  0
  3 20  1  0
  6 21  1  0
  6 22  1  0
  7 23  1  0
  9 24  1  0
 10 25  1  0
 11 26  1  0
 12 27  1  0
M  END
>  <loss>  (15) 
0.42633360624313354

>  <score>  (15) 
6.120831489562988

$$$$
WWGJSAKTVIHBMA-UHFFFAOYSA-N
     RDKit          3D

 27 27  0  0  0  0  0  0  0  0999 V2000
  120.0345  123.8590   85.2859 N   0  0  0  0  0  0  0  0  0  0  0  0
  120.1711  123.3242   86.4521 C   0  0  0  0  0  0  0  0  0  0  0  0
  119.2176  123.4581   87.3981 N   0  0  0  0  0  0  0  0  0  0  0  0
  121.2528  122.5674   86.7580 N   0  0  0  0  0  0  0  0  0  0  0  0
  122.1647  122.2796   85.8871 C   0  0  0  0  0  0  0  0  0  0  0  0
  122.1829  122.6876   84.5814 N   0  0  0  0  0  0  0  0  0  0  0  0
  123.2985  121.5417   86.1208 N   0  0  0  0  0  0  0  0  0  0  0  0
  124.2180  121.6484   87.1878 C   0  0  0  0  0  0  0  0  0  0  0  0
  123.7817  121.6685   88.5251 C   0  0  0  0  0  0  0  0  0  0  0  0
  124.6764  121.7487   89.5962 C   0  0  0  0  0  0  0  0  0  0  0  0
  126.0416  121.7983   89.3577 C   0  0  0  0  0  0  0  0  0  0  0  0
  126.5064  121.7594   88.0475 C   0  0  0  0  0  0  0  0  0  0  0  0
  125.6120  121.6792   86.9556 C   0  0  0  0  0  0  0  0  0  0  0  0
  126.2227  121.6224   85.5782 C   0  0  0  0  0  0  0  0  0  0  0  0
  127.5057  122.0867   85.5595 F   0  0  0  0  0  0  0  0  0  0  0  0
  125.5426  122.3792   84.6695 F   0  0  0  0  0  0  0  0  0  0  0  0
  126.2821  120.3676   85.0414 F   0  0  0  0  0  0  0  0  0  0  0  0
  120.7735  123.7454   84.5775 H   0  0  0  0  0  0  0  0  0  0  0  0
  119.3453  123.0235   88.3231 H   0  0  0  0  0  0  0  0  0  0  0  0
  118.3624  123.9949   87.1949 H   0  0  0  0  0  0  0  0  0  0  0  0
  122.9570  122.4041   83.9640 H   0  0  0  0  0  0  0  0  0  0  0  0
  121.4224  123.2783   84.2159 H   0  0  0  0  0  0  0  0  0  0  0  0
  123.5068  120.8120   85.4243 H   0  0  0  0  0  0  0  0  0  0  0  0
  122.7029  121.6196   88.7345 H   0  0  0  0  0  0  0  0  0  0  0  0
  124.2974  121.7724   90.6286 H   0  0  0  0  0  0  0  0  0  0  0  0
  126.7498  121.8678   90.1965 H   0  0  0  0  0  0  0  0  0  0  0  0
  127.5894  121.7917   87.8574 H   0  0  0  0  0  0  0  0  0  0  0  0
  1  2  2  3
  2  3  1  0
  2  4  1  0
  4  5  2  3
  5  6  1  0
  5  7  1  0
  7  8  1  0
  8  9  2  0
  9 10  1  0
 10 11  2  0
 11 12  1  0
 12 13  2  0
 13 14  1  0
 14 15  1  0
 14 16  1  0
 14 17  1  0
 13  8  1  0
  1 18  1  0
  3 19  1  0
  3 20  1  0
  6 21  1  0
  6 22  1  0
  7 23  1  0
  9 24  1  0
 10 25  1  0
 11 26  1  0
 12 27  1  0
M  END
>  <loss>  (16) 
0.4355126619338989

>  <score>  (16) 
6.161442279815674

$$$$
WWGJSAKTVIHBMA-UHFFFAOYSA-N
     RDKit          3D

 27 27  0  0  0  0  0  0  0  0999 V2000
  119.6629  123.4576   85.5287 N   0  0  0  0  0  0  0  0  0  0  0  0
  120.1338  123.2790   86.7164 C   0  0  0  0  0  0  0  0  0  0  0  0
  119.5149  123.7996   87.7974 N   0  0  0  0  0  0  0  0  0  0  0  0
  121.2357  122.5216   86.9332 N   0  0  0  0  0  0  0  0  0  0  0  0
  122.1303  122.3213   86.0211 C   0  0  0  0  0  0  0  0  0  0  0  0
  122.1146  122.8349   84.7537 N   0  0  0  0  0  0  0  0  0  0  0  0
  123.2765  121.5849   86.1776 N   0  0  0  0  0  0  0  0  0  0  0  0
  124.2229  121.6411   87.2216 C   0  0  0  0  0  0  0  0  0  0  0  0
  123.8152  121.6675   88.5672 C   0  0  0  0  0  0  0  0  0  0  0  0
  124.7355  121.7261   89.6172 C   0  0  0  0  0  0  0  0  0  0  0  0
  126.0955  121.7628   89.3460 C   0  0  0  0  0  0  0  0  0  0  0  0
  126.5301  121.7367   88.0243 C   0  0  0  0  0  0  0  0  0  0  0  0
  125.6098  121.6689   86.9546 C   0  0  0  0  0  0  0  0  0  0  0  0
  126.1687  121.6793   85.5546 C   0  0  0  0  0  0  0  0  0  0  0  0
  127.1993  122.5572   85.4084 F   0  0  0  0  0  0  0  0  0  0  0  0
  126.6590  120.4658   85.1704 F   0  0  0  0  0  0  0  0  0  0  0  0
  125.2545  122.0178   84.5978 F   0  0  0  0  0  0  0  0  0  0  0  0
  120.1488  123.0527   84.7157 H   0  0  0  0  0  0  0  0  0  0  0  0
  119.9057  123.6466   88.7380 H   0  0  0  0  0  0  0  0  0  0  0  0
  118.6519  124.3498   87.6815 H   0  0  0  0  0  0  0  0  0  0  0  0
  122.8787  122.6143   84.0991 H   0  0  0  0  0  0  0  0  0  0  0  0
  121.3387  123.4422   84.4536 H   0  0  0  0  0  0  0  0  0  0  0  0
  123.4722  120.8998   85.4339 H   0  0  0  0  0  0  0  0  0  0  0  0
  122.7404  121.6412   88.8001 H   0  0  0  0  0  0  0  0  0  0  0  0
  124.3816  121.7432   90.6586 H   0  0  0  0  0  0  0  0  0  0  0  0
  126.8241  121.8120   90.1687 H   0  0  0  0  0  0  0  0  0  0  0  0
  127.6083  121.7694   87.8088 H   0  0  0  0  0  0  0  0  0  0  0  0
  1  2  2  3
  2  3  1  0
  2  4  1  0
  4  5  2  3
  5  6  1  0
  5  7  1  0
  7  8  1  0
  8  9  2  0
  9 10  1  0
 10 11  2  0
 11 12  1  0
 12 13  2  0
 13 14  1  0
 14 15  1  0
 14 16  1  0
 14 17  1  0
 13  8  1  0
  1 18  1  0
  3 19  1  0
  3 20  1  0
  6 21  1  0
  6 22  1  0
  7 23  1  0
  9 24  1  0
 10 25  1  0
 11 26  1  0
 12 27  1  0
M  END
>  <loss>  (17) 
0.43156808614730835

>  <score>  (17) 
6.1326470375061035

$$$$
WWGJSAKTVIHBMA-UHFFFAOYSA-N
     RDKit          3D

 27 27  0  0  0  0  0  0  0  0999 V2000
  119.7091  123.5244   85.4847 N   0  0  0  0  0  0  0  0  0  0  0  0
  120.1244  123.2648   86.6783 C   0  0  0  0  0  0  0  0  0  0  0  0
  119.4519  123.7119   87.7606 N   0  0  0  0  0  0  0  0  0  0  0  0
  121.2439  122.5357   86.9024 N   0  0  0  0  0  0  0  0  0  0  0  0
  122.1436  122.3270   85.9978 C   0  0  0  0  0  0  0  0  0  0  0  0
  122.0963  122.7589   84.7015 N   0  0  0  0  0  0  0  0  0  0  0  0
  123.2890  121.5941   86.1706 N   0  0  0  0  0  0  0  0  0  0  0  0
  124.2291  121.6562   87.2194 C   0  0  0  0  0  0  0  0  0  0  0  0
  123.8173  121.6694   88.5637 C   0  0  0  0  0  0  0  0  0  0  0  0
  124.7344  121.7217   89.6170 C   0  0  0  0  0  0  0  0  0  0  0  0
  126.0954  121.7579   89.3508 C   0  0  0  0  0  0  0  0  0  0  0  0
  126.5342  121.7443   88.0303 C   0  0  0  0  0  0  0  0  0  0  0  0
  125.6167  121.7003   86.9571 C   0  0  0  0  0  0  0  0  0  0  0  0
  126.1800  121.6502   85.5598 C   0  0  0  0  0  0  0  0  0  0  0  0
  126.7999  120.4689   85.2871 F   0  0  0  0  0  0  0  0  0  0  0  0
  127.1110  122.6194   85.3263 F   0  0  0  0  0  0  0  0  0  0  0  0
  125.2402  121.8101   84.5813 F   0  0  0  0  0  0  0  0  0  0  0  0
  120.2337  123.1759   84.6697 H   0  0  0  0  0  0  0  0  0  0  0  0
  119.7969  123.4959   88.7068 H   0  0  0  0  0  0  0  0  0  0  0  0
  118.5939  124.2689   87.6400 H   0  0  0  0  0  0  0  0  0  0  0  0
  122.8686  122.5384   84.0567 H   0  0  0  0  0  0  0  0  0  0  0  0
  121.2884  123.3049   84.3697 H   0  0  0  0  0  0  0  0  0  0  0  0
  123.4904  120.9036   85.4334 H   0  0  0  0  0  0  0  0  0  0  0  0
  122.7420  121.6375   88.7931 H   0  0  0  0  0  0  0  0  0  0  0  0
  124.3770  121.7343   90.6572 H   0  0  0  0  0  0  0  0  0  0  0  0
  126.8213  121.7969   90.1763 H   0  0  0  0  0  0  0  0  0  0  0  0
  127.6134  121.7683   87.8187 H   0  0  0  0  0  0  0  0  0  0  0  0
  1  2  2  3
  2  3  1  0
  2  4  1  0
  4  5  2  3
  5  6  1  0
  5  7  1  0
  7  8  1  0
  8  9  2  0
  9 10  1  0
 10 11  2  0
 11 12  1  0
 12 13  2  0
 13 14  1  0
 14 15  1  0
 14 16  1  0
 14 17  1  0
 13  8  1  0
  1 18  1  0
  3 19  1  0
  3 20  1  0
  6 21  1  0
  6 22  1  0
  7 23  1  0
  9 24  1  0
 10 25  1  0
 11 26  1  0
 12 27  1  0
M  END
>  <loss>  (18) 
0.42896175384521484

>  <score>  (18) 
6.119516849517822

$$$$
WWGJSAKTVIHBMA-UHFFFAOYSA-N
     RDKit          3D

 27 27  0  0  0  0  0  0  0  0999 V2000
  119.6822  123.4584   85.4386 N   0  0  0  0  0  0  0  0  0  0  0  0
  120.1195  123.2544   86.6352 C   0  0  0  0  0  0  0  0  0  0  0  0
  119.4826  123.7754   87.7059 N   0  0  0  0  0  0  0  0  0  0  0  0
  121.2273  122.5123   86.8742 N   0  0  0  0  0  0  0  0  0  0  0  0
  122.1519  122.3193   85.9915 C   0  0  0  0  0  0  0  0  0  0  0  0
  122.1455  122.7828   84.7053 N   0  0  0  0  0  0  0  0  0  0  0  0
  123.2871  121.5745   86.1799 N   0  0  0  0  0  0  0  0  0  0  0  0
  124.2279  121.6454   87.2275 C   0  0  0  0  0  0  0  0  0  0  0  0
  123.8174  121.6615   88.5722 C   0  0  0  0  0  0  0  0  0  0  0  0
  124.7352  121.7226   89.6243 C   0  0  0  0  0  0  0  0  0  0  0  0
  126.0957  121.7648   89.3566 C   0  0  0  0  0  0  0  0  0  0  0  0
  126.5334  121.7486   88.0358 C   0  0  0  0  0  0  0  0  0  0  0  0
  125.6151  121.6957   86.9637 C   0  0  0  0  0  0  0  0  0  0  0  0
  126.1771  121.6434   85.5659 C   0  0  0  0  0  0  0  0  0  0  0  0
  126.2515  120.3741   85.0786 F   0  0  0  0  0  0  0  0  0  0  0  0
  127.4421  122.1468   85.4820 F   0  0  0  0  0  0  0  0  0  0  0  0
  125.4470  122.3491   84.6521 F   0  0  0  0  0  0  0  0  0  0  0  0
  120.1797  123.0539   84.6325 H   0  0  0  0  0  0  0  0  0  0  0  0
  119.8447  123.6031   88.6547 H   0  0  0  0  0  0  0  0  0  0  0  0
  118.6347  124.3451   87.5739 H   0  0  0  0  0  0  0  0  0  0  0  0
  122.9351  122.5726   84.0782 H   0  0  0  0  0  0  0  0  0  0  0  0
  121.3511  123.3422   84.3634 H   0  0  0  0  0  0  0  0  0  0  0  0
  123.4791  120.8662   85.4572 H   0  0  0  0  0  0  0  0  0  0  0  0
  122.7424  121.6249   88.8028 H   0  0  0  0  0  0  0  0  0  0  0  0
  124.3788  121.7371   90.6649 H   0  0  0  0  0  0  0  0  0  0  0  0
  126.8222  121.8107   90.1813 H   0  0  0  0  0  0  0  0  0  0  0  0
  127.6122  121.7775   87.8230 H   0  0  0  0  0  0  0  0  0  0  0  0
  1  2  2  3
  2  3  1  0
  2  4  1  0
  4  5  2  3
  5  6  1  0
  5  7  1  0
  7  8  1  0
  8  9  2  0
  9 10  1  0
 10 11  2  0
 11 12  1  0
 12 13  2  0
 13 14  1  0
 14 15  1  0
 14 16  1  0
 14 17  1  0
 13  8  1  0
  1 18  1  0
  3 19  1  0
  3 20  1  0
  6 21  1  0
  6 22  1  0
  7 23  1  0
  9 24  1  0
 10 25  1  0
 11 26  1  0
 12 27  1  0
M  END
>  <loss>  (19) 
0.43443650007247925

>  <score>  (19) 
6.146355152130127

$$$$
WWGJSAKTVIHBMA-UHFFFAOYSA-N
     RDKit          3D

 27 27  0  0  0  0  0  0  0  0999 V2000
  120.2843  124.4000   85.4514 N   0  0  0  0  0  0  0  0  0  0  0  0
  120.3922  123.4903   86.3598 C   0  0  0  0  0  0  0  0  0  0  0  0
  119.3182  123.0916   87.0749 N   0  0  0  0  0  0  0  0  0  0  0  0
  121.5766  122.8940   86.6368 N   0  0  0  0  0  0  0  0  0  0  0  0
  122.2558  122.2312   85.7590 C   0  0  0  0  0  0  0  0  0  0  0  0
  121.8853  121.9978   84.4638 N   0  0  0  0  0  0  0  0  0  0  0  0
  123.4539  121.6058   85.9881 N   0  0  0  0  0  0  0  0  0  0  0  0
  124.2777  121.6638   87.1307 C   0  0  0  0  0  0  0  0  0  0  0  0
  123.7256  121.6848   88.4236 C   0  0  0  0  0  0  0  0  0  0  0  0
  124.5260  121.7332   89.5682 C   0  0  0  0  0  0  0  0  0  0  0  0
  125.9078  121.7574   89.4481 C   0  0  0  0  0  0  0  0  0  0  0  0
  126.4843  121.7358   88.1818 C   0  0  0  0  0  0  0  0  0  0  0  0
  125.6857  121.6956   87.0172 C   0  0  0  0  0  0  0  0  0  0  0  0
  126.3937  121.6363   85.6878 C   0  0  0  0  0  0  0  0  0  0  0  0
  126.6886  120.3624   85.3079 F   0  0  0  0  0  0  0  0  0  0  0  0
  127.5815  122.3070   85.6871 F   0  0  0  0  0  0  0  0  0  0  0  0
  125.6759  122.1736   84.6572 F   0  0  0  0  0  0  0  0  0  0  0  0
  121.1133  124.6929   84.9148 H   0  0  0  0  0  0  0  0  0  0  0  0
  119.4213  122.3640   87.7967 H   0  0  0  0  0  0  0  0  0  0  0  0
  118.3960  123.5150   86.8986 H   0  0  0  0  0  0  0  0  0  0  0  0
  122.5012  121.4550   83.8418 H   0  0  0  0  0  0  0  0  0  0  0  0
  120.9902  122.3647   84.1101 H   0  0  0  0  0  0  0  0  0  0  0  0
  123.7995  121.0124   85.2205 H   0  0  0  0  0  0  0  0  0  0  0  0
  122.6317  121.6625   88.5375 H   0  0  0  0  0  0  0  0  0  0  0  0
  124.0602  121.7522   90.5646 H   0  0  0  0  0  0  0  0  0  0  0  0
  126.5422  121.7933   90.3459 H   0  0  0  0  0  0  0  0  0  0  0  0
  127.5801  121.7504   88.0860 H   0  0  0  0  0  0  0  0  0  0  0  0
  1  2  2  3
  2  3  1  0
  2  4  1  0
  4  5  2  3
  5  6  1  0
  5  7  1  0
  7  8  1  0
  8  9  2  0
  9 10  1  0
 10 11  2  0
 11 12  1  0
 12 13  2  0
 13 14  1  0
 14 15  1  0
 14 16  1  0
 14 17  1  0
 13  8  1  0
  1 18  1  0
  3 19  1  0
  3 20  1  0
  6 21  1  0
  6 22  1  0
  7 23  1  0
  9 24  1  0
 10 25  1  0
 11 26  1  0
 12 27  1  0
M  END
>  <loss>  (20) 
0.47489482164382935

>  <score>  (20) 
6.345228672027588

$$$$
WWGJSAKTVIHBMA-UHFFFAOYSA-N
     RDKit          3D

 27 27  0  0  0  0  0  0  0  0999 V2000
  119.6909  123.4725   85.4482 N   0  0  0  0  0  0  0  0  0  0  0  0
  120.1220  123.2615   86.6458 C   0  0  0  0  0  0  0  0  0  0  0  0
  119.4824  123.7802   87.7161 N   0  0  0  0  0  0  0  0  0  0  0  0
  121.2259  122.5141   86.8864 N   0  0  0  0  0  0  0  0  0  0  0  0
  122.1535  122.3211   86.0068 C   0  0  0  0  0  0  0  0  0  0  0  0
  122.1544  122.7900   84.7225 N   0  0  0  0  0  0  0  0  0  0  0  0
  123.2850  121.5710   86.1968 N   0  0  0  0  0  0  0  0  0  0  0  0
  124.2269  121.6406   87.2434 C   0  0  0  0  0  0  0  0  0  0  0  0
  123.8180  121.6522   88.5887 C   0  0  0  0  0  0  0  0  0  0  0  0
  124.7370  121.7119   89.6399 C   0  0  0  0  0  0  0  0  0  0  0  0
  126.0971  121.7571   89.3706 C   0  0  0  0  0  0  0  0  0  0  0  0
  126.5332  121.7453   88.0492 C   0  0  0  0  0  0  0  0  0  0  0  0
  125.6137  121.6939   86.9781 C   0  0  0  0  0  0  0  0  0  0  0  0
  126.1741  121.6464   85.5795 C   0  0  0  0  0  0  0  0  0  0  0  0
  126.2725  120.3766   85.0977 F   0  0  0  0  0  0  0  0  0  0  0  0
  127.4288  122.1741   85.4909 F   0  0  0  0  0  0  0  0  0  0  0  0
  125.4287  122.3335   84.6640 F   0  0  0  0  0  0  0  0  0  0  0  0
  120.1903  123.0697   84.6425 H   0  0  0  0  0  0  0  0  0  0  0  0
  119.8396  123.6022   88.6656 H   0  0  0  0  0  0  0  0  0  0  0  0
  118.6374  124.3538   87.5829 H   0  0  0  0  0  0  0  0  0  0  0  0
  122.9458  122.5793   84.0979 H   0  0  0  0  0  0  0  0  0  0  0  0
  121.3637  123.3540   84.3796 H   0  0  0  0  0  0  0  0  0  0  0  0
  123.4727  120.8593   85.4764 H   0  0  0  0  0  0  0  0  0  0  0  0
  122.7434  121.6133   88.8205 H   0  0  0  0  0  0  0  0  0  0  0  0
  124.3818  121.7230   90.6809 H   0  0  0  0  0  0  0  0  0  0  0  0
  126.8245  121.8019   90.1945 H   0  0  0  0  0  0  0  0  0  0  0  0
  127.6117  121.7765   87.8352 H   0  0  0  0  0  0  0  0  0  0  0  0
  1  2  2  3
  2  3  1  0
  2  4  1  0
  4  5  2  3
  5  6  1  0
  5  7  1  0
  7  8  1  0
  8  9  2  0
  9 10  1  0
 10 11  2  0
 11 12  1  0
 12 13  2  0
 13 14  1  0
 14 15  1  0
 14 16  1  0
 14 17  1  0
 13  8  1  0
  1 18  1  0
  3 19  1  0
  3 20  1  0
  6 21  1  0
  6 22  1  0
  7 23  1  0
  9 24  1  0
 10 25  1  0
 11 26  1  0
 12 27  1  0
M  END
>  <loss>  (21) 
0.4340353012084961

>  <score>  (21) 
6.12503719329834

$$$$
WWGJSAKTVIHBMA-UHFFFAOYSA-N
     RDKit          3D

 27 27  0  0  0  0  0  0  0  0999 V2000
  119.6666  123.4459   85.4877 N   0  0  0  0  0  0  0  0  0  0  0  0
  120.1358  123.2745   86.6772 C   0  0  0  0  0  0  0  0  0  0  0  0
  119.5155  123.8017   87.7541 N   0  0  0  0  0  0  0  0  0  0  0  0
  121.2372  122.5181   86.9001 N   0  0  0  0  0  0  0  0  0  0  0  0
  122.1377  122.3198   85.9935 C   0  0  0  0  0  0  0  0  0  0  0  0
  122.1294  122.8345   84.7264 N   0  0  0  0  0  0  0  0  0  0  0  0
  123.2838  121.5846   86.1565 N   0  0  0  0  0  0  0  0  0  0  0  0
  124.2246  121.6424   87.2054 C   0  0  0  0  0  0  0  0  0  0  0  0
  123.8101  121.6624   88.5490 C   0  0  0  0  0  0  0  0  0  0  0  0
  124.7248  121.7224   89.6038 C   0  0  0  0  0  0  0  0  0  0  0  0
  126.0859  121.7670   89.3395 C   0  0  0  0  0  0  0  0  0  0  0  0
  126.5273  121.7473   88.0199 C   0  0  0  0  0  0  0  0  0  0  0  0
  125.6127  121.6782   86.9454 C   0  0  0  0  0  0  0  0  0  0  0  0
  126.1786  121.6960   85.5483 C   0  0  0  0  0  0  0  0  0  0  0  0
  126.6854  122.9118   85.2037 F   0  0  0  0  0  0  0  0  0  0  0  0
  127.1999  120.8078   85.3786 F   0  0  0  0  0  0  0  0  0  0  0  0
  125.2669  121.3859   84.5795 F   0  0  0  0  0  0  0  0  0  0  0  0
  120.1537  123.0360   84.6779 H   0  0  0  0  0  0  0  0  0  0  0  0
  119.9048  123.6543   88.6962 H   0  0  0  0  0  0  0  0  0  0  0  0
  118.6527  124.3514   87.6336 H   0  0  0  0  0  0  0  0  0  0  0  0
  122.8978  122.6155   84.0765 H   0  0  0  0  0  0  0  0  0  0  0  0
  121.3546  123.4412   84.4221 H   0  0  0  0  0  0  0  0  0  0  0  0
  123.4841  120.8992   85.4142 H   0  0  0  0  0  0  0  0  0  0  0  0
  122.7343  121.6298   88.7764 H   0  0  0  0  0  0  0  0  0  0  0  0
  124.3656  121.7344   90.6434 H   0  0  0  0  0  0  0  0  0  0  0  0
  126.8101  121.8174   90.1660 H   0  0  0  0  0  0  0  0  0  0  0  0
  127.6063  121.7863   87.8100 H   0  0  0  0  0  0  0  0  0  0  0  0
  1  2  2  3
  2  3  1  0
  2  4  1  0
  4  5  2  3
  5  6  1  0
  5  7  1  0
  7  8  1  0
  8  9  2  0
  9 10  1  0
 10 11  2  0
 11 12  1  0
 12 13  2  0
 13 14  1  0
 14 15  1  0
 14 16  1  0
 14 17  1  0
 13  8  1  0
  1 18  1  0
  3 19  1  0
  3 20  1  0
  6 21  1  0
  6 22  1  0
  7 23  1  0
  9 24  1  0
 10 25  1  0
 11 26  1  0
 12 27  1  0
M  END
>  <loss>  (22) 
0.4345512390136719

>  <score>  (22) 
6.11051082611084

$$$$
WWGJSAKTVIHBMA-UHFFFAOYSA-N
     RDKit          3D

 27 27  0  0  0  0  0  0  0  0999 V2000
  119.6863  123.4750   85.4748 N   0  0  0  0  0  0  0  0  0  0  0  0
  120.1242  123.2960   86.6751 C   0  0  0  0  0  0  0  0  0  0  0  0
  119.4674  123.8006   87.7409 N   0  0  0  0  0  0  0  0  0  0  0  0
  121.2325  122.5547   86.9178 N   0  0  0  0  0  0  0  0  0  0  0  0
  122.1107  122.3029   86.0023 C   0  0  0  0  0  0  0  0  0  0  0  0
  122.0640  122.7377   84.7060 N   0  0  0  0  0  0  0  0  0  0  0  0
  123.2674  121.5831   86.1708 N   0  0  0  0  0  0  0  0  0  0  0  0
  124.2162  121.6668   87.2140 C   0  0  0  0  0  0  0  0  0  0  0  0
  123.8172  121.6561   88.5631 C   0  0  0  0  0  0  0  0  0  0  0  0
  124.7414  121.7131   89.6104 C   0  0  0  0  0  0  0  0  0  0  0  0
  126.0993  121.7697   89.3352 C   0  0  0  0  0  0  0  0  0  0  0  0
  126.5275  121.7610   88.0120 C   0  0  0  0  0  0  0  0  0  0  0  0
  125.6032  121.7044   86.9438 C   0  0  0  0  0  0  0  0  0  0  0  0
  126.1753  121.6796   85.5491 C   0  0  0  0  0  0  0  0  0  0  0  0
  126.6085  120.4372   85.1876 F   0  0  0  0  0  0  0  0  0  0  0  0
  127.2540  122.5027   85.4081 F   0  0  0  0  0  0  0  0  0  0  0  0
  125.2952  122.0558   84.5743 F   0  0  0  0  0  0  0  0  0  0  0  0
  120.2019  123.0818   84.6745 H   0  0  0  0  0  0  0  0  0  0  0  0
  119.8332  123.6468   88.6914 H   0  0  0  0  0  0  0  0  0  0  0  0
  118.6005  124.3396   87.6037 H   0  0  0  0  0  0  0  0  0  0  0  0
  122.8156  122.4823   84.0497 H   0  0  0  0  0  0  0  0  0  0  0  0
  121.2772  123.3206   84.3863 H   0  0  0  0  0  0  0  0  0  0  0  0
  123.4709  120.8885   85.4380 H   0  0  0  0  0  0  0  0  0  0  0  0
  122.7447  121.6011   88.8011 H   0  0  0  0  0  0  0  0  0  0  0  0
  124.3913  121.7130   90.6532 H   0  0  0  0  0  0  0  0  0  0  0  0
  126.8306  121.8210   90.1553 H   0  0  0  0  0  0  0  0  0  0  0  0
  127.6048  121.7989   87.7927 H   0  0  0  0  0  0  0  0  0  0  0  0
  1  2  2  3
  2  3  1  0
  2  4  1  0
  4  5  2  3
  5  6  1  0
  5  7  1  0
  7  8  1  0
  8  9  2  0
  9 10  1  0
 10 11  2  0
 11 12  1  0
 12 13  2  0
 13 14  1  0
 14 15  1  0
 14 16  1  0
 14 17  1  0
 13  8  1  0
  1 18  1  0
  3 19  1  0
  3 20  1  0
  6 21  1  0
  6 22  1  0
  7 23  1  0
  9 24  1  0
 10 25  1  0
 11 26  1  0
 12 27  1  0
M  END
>  <loss>  (23) 
0.42800989747047424

>  <score>  (23) 
6.064766883850098

$$$$
WWGJSAKTVIHBMA-UHFFFAOYSA-N
     RDKit          3D

 27 27  0  0  0  0  0  0  0  0999 V2000
  119.6664  123.4488   85.4967 N   0  0  0  0  0  0  0  0  0  0  0  0
  120.1068  123.2239   86.6883 C   0  0  0  0  0  0  0  0  0  0  0  0
  119.4370  123.6657   87.7741 N   0  0  0  0  0  0  0  0  0  0  0  0
  121.2276  122.4937   86.9013 N   0  0  0  0  0  0  0  0  0  0  0  0
  122.1214  122.3113   85.9847 C   0  0  0  0  0  0  0  0  0  0  0  0
  122.0862  122.8196   84.7156 N   0  0  0  0  0  0  0  0  0  0  0  0
  123.2856  121.6030   86.1372 N   0  0  0  0  0  0  0  0  0  0  0  0
  124.2212  121.6638   87.1907 C   0  0  0  0  0  0  0  0  0  0  0  0
  123.8004  121.6745   88.5324 C   0  0  0  0  0  0  0  0  0  0  0  0
  124.7098  121.7374   89.5916 C   0  0  0  0  0  0  0  0  0  0  0  0
  126.0717  121.7940   89.3338 C   0  0  0  0  0  0  0  0  0  0  0  0
  126.5192  121.7837   88.0161 C   0  0  0  0  0  0  0  0  0  0  0  0
  125.6101  121.7119   86.9372 C   0  0  0  0  0  0  0  0  0  0  0  0
  126.1822  121.7403   85.5427 C   0  0  0  0  0  0  0  0  0  0  0  0
  126.7010  122.9555   85.2139 F   0  0  0  0  0  0  0  0  0  0  0  0
  127.1964  120.8452   85.3674 F   0  0  0  0  0  0  0  0  0  0  0  0
  125.2720  121.4491   84.5667 F   0  0  0  0  0  0  0  0  0  0  0  0
  120.1910  123.1039   84.6802 H   0  0  0  0  0  0  0  0  0  0  0  0
  119.8040  123.4766   88.7177 H   0  0  0  0  0  0  0  0  0  0  0  0
  118.5591  124.1919   87.6588 H   0  0  0  0  0  0  0  0  0  0  0  0
  122.8515  122.6148   84.0574 H   0  0  0  0  0  0  0  0  0  0  0  0
  121.2943  123.4072   84.4180 H   0  0  0  0  0  0  0  0  0  0  0  0
  123.5061  120.9382   85.3819 H   0  0  0  0  0  0  0  0  0  0  0  0
  122.7239  121.6323   88.7548 H   0  0  0  0  0  0  0  0  0  0  0  0
  124.3458  121.7419   90.6296 H   0  0  0  0  0  0  0  0  0  0  0  0
  126.7917  121.8467   90.1638 H   0  0  0  0  0  0  0  0  0  0  0  0
  127.5989  121.8323   87.8113 H   0  0  0  0  0  0  0  0  0  0  0  0
  1  2  2  3
  2  3  1  0
  2  4  1  0
  4  5  2  3
  5  6  1  0
  5  7  1  0
  7  8  1  0
  8  9  2  0
  9 10  1  0
 10 11  2  0
 11 12  1  0
 12 13  2  0
 13 14  1  0
 14 15  1  0
 14 16  1  0
 14 17  1  0
 13  8  1  0
  1 18  1  0
  3 19  1  0
  3 20  1  0
  6 21  1  0
  6 22  1  0
  7 23  1  0
  9 24  1  0
 10 25  1  0
 11 26  1  0
 12 27  1  0
M  END
>  <loss>  (24) 
0.4350166320800781

>  <score>  (24) 
6.099117279052734

$$$$
WWGJSAKTVIHBMA-UHFFFAOYSA-N
     RDKit          3D

 27 27  0  0  0  0  0  0  0  0999 V2000
  119.7547  124.1357   84.8317 N   0  0  0  0  0  0  0  0  0  0  0  0
  120.2344  123.6437   85.9152 C   0  0  0  0  0  0  0  0  0  0  0  0
  119.4356  123.4061   86.9772 N   0  0  0  0  0  0  0  0  0  0  0  0
  121.5659  123.4306   85.9451 N   0  0  0  0  0  0  0  0  0  0  0  0
  122.0162  122.2251   86.0670 C   0  0  0  0  0  0  0  0  0  0  0  0
  121.2510  121.0934   86.1632 N   0  0  0  0  0  0  0  0  0  0  0  0
  123.3363  121.8514   86.0994 N   0  0  0  0  0  0  0  0  0  0  0  0
  124.2491  121.8385   87.1815 C   0  0  0  0  0  0  0  0  0  0  0  0
  123.8210  121.8081   88.5196 C   0  0  0  0  0  0  0  0  0  0  0  0
  124.7232  121.7449   89.5869 C   0  0  0  0  0  0  0  0  0  0  0  0
  126.0867  121.6835   89.3439 C   0  0  0  0  0  0  0  0  0  0  0  0
  126.5437  121.6743   88.0312 C   0  0  0  0  0  0  0  0  0  0  0  0
  125.6427  121.7453   86.9448 C   0  0  0  0  0  0  0  0  0  0  0  0
  126.2310  121.6748   85.5577 C   0  0  0  0  0  0  0  0  0  0  0  0
  127.2351  120.7568   85.4324 F   0  0  0  0  0  0  0  0  0  0  0  0
  125.3160  121.3446   84.6033 F   0  0  0  0  0  0  0  0  0  0  0  0
  126.7705  122.8611   85.1611 F   0  0  0  0  0  0  0  0  0  0  0  0
  120.3740  124.3126   84.0280 H   0  0  0  0  0  0  0  0  0  0  0  0
  119.8322  123.0109   87.8418 H   0  0  0  0  0  0  0  0  0  0  0  0
  118.4296  123.6201   86.9230 H   0  0  0  0  0  0  0  0  0  0  0  0
  121.7030  120.1727   86.2579 H   0  0  0  0  0  0  0  0  0  0  0  0
  120.2236  121.1629   86.1408 H   0  0  0  0  0  0  0  0  0  0  0  0
  123.7217  121.5315   85.1994 H   0  0  0  0  0  0  0  0  0  0  0  0
  122.7425  121.8350   88.7345 H   0  0  0  0  0  0  0  0  0  0  0  0
  124.3497  121.7438   90.6216 H   0  0  0  0  0  0  0  0  0  0  0  0
  126.7992  121.6426   90.1810 H   0  0  0  0  0  0  0  0  0  0  0  0
  127.6242  121.6108   87.8348 H   0  0  0  0  0  0  0  0  0  0  0  0
  1  2  2  3
  2  3  1  0
  2  4  1  0
  4  5  2  3
  5  6  1  0
  5  7  1  0
  7  8  1  0
  8  9  2  0
  9 10  1  0
 10 11  2  0
 11 12  1  0
 12 13  2  0
 13 14  1  0
 14 15  1  0
 14 16  1  0
 14 17  1  0
 13  8  1  0
  1 18  1  0
  3 19  1  0
  3 20  1  0
  6 21  1  0
  6 22  1  0
  7 23  1  0
  9 24  1  0
 10 25  1  0
 11 26  1  0
 12 27  1  0
M  END
>  <loss>  (25) 
0.4263684153556824

>  <score>  (25) 
6.029300212860107

$$$$
