XACAJANRBWYFIE-UHFFFAOYSA-N
     RDKit          3D

 39 39  0  0  0  0  0  0  0  0999 V2000
  126.9926  122.6155   83.4379 C   0  0  0  0  0  0  0  0  0  0  0  0
  127.5802  122.2377   84.7906 C   0  0  0  0  0  0  0  0  0  0  0  0
  126.9699  120.9617   85.3781 C   0  0  0  0  0  0  0  0  0  0  0  0
  125.7828  121.2130   86.2762 C   0  0  0  0  0  0  0  0  0  0  0  0
  124.5055  121.3824   85.7343 C   0  0  0  0  0  0  0  0  0  0  0  0
  123.4070  121.6208   86.5643 C   0  0  0  0  0  0  0  0  0  0  0  0
  123.5697  121.6925   87.9510 C   0  0  0  0  0  0  0  0  0  0  0  0
  122.5521  121.9283   88.8417 O   0  0  0  0  0  0  0  0  0  0  0  0
  121.2143  121.7417   88.3892 C   0  0  0  0  0  0  0  0  0  0  0  0
  120.6809  123.0851   87.8934 C   0  0  0  0  0  0  0  0  0  0  0  0
  119.7431  122.9344   86.7922 N   0  0  0  0  0  0  0  0  0  0  0  0
  119.7349  123.8301   85.7451 C   0  0  0  0  0  0  0  0  0  0  0  0
  118.4506  123.8390   84.9594 C   0  0  0  0  0  0  0  0  0  0  0  0
  120.6719  124.5689   85.4650 O   0  0  0  0  0  0  0  0  0  0  0  0
  124.8531  121.5290   88.5085 C   0  0  0  0  0  0  0  0  0  0  0  0
  124.9293  121.6121   89.8774 O   0  0  0  0  0  0  0  0  0  0  0  0
  126.2215  121.6900   90.4611 C   0  0  0  0  0  0  0  0  0  0  0  0
  125.9469  121.2874   87.6678 C   0  0  0  0  0  0  0  0  0  0  0  0
  126.0760  123.2048   83.5879 H   0  0  0  0  0  0  0  0  0  0  0  0
  127.7244  123.2128   82.8742 H   0  0  0  0  0  0  0  0  0  0  0  0
  126.7530  121.7018   82.8742 H   0  0  0  0  0  0  0  0  0  0  0  0
  128.6629  122.0846   84.6711 H   0  0  0  0  0  0  0  0  0  0  0  0
  127.3535  123.0590   85.4864 H   0  0  0  0  0  0  0  0  0  0  0  0
  126.6462  120.3175   84.5473 H   0  0  0  0  0  0  0  0  0  0  0  0
  127.7469  120.4902   85.9977 H   0  0  0  0  0  0  0  0  0  0  0  0
  124.3639  121.3275   84.6448 H   0  0  0  0  0  0  0  0  0  0  0  0
  122.4078  121.7529   86.1238 H   0  0  0  0  0  0  0  0  0  0  0  0
  121.1986  121.0098   87.5682 H   0  0  0  0  0  0  0  0  0  0  0  0
  120.5866  121.3658   89.2106 H   0  0  0  0  0  0  0  0  0  0  0  0
  120.1707  123.5920   88.7256 H   0  0  0  0  0  0  0  0  0  0  0  0
  121.5363  123.6727   87.5287 H   0  0  0  0  0  0  0  0  0  0  0  0
  119.0770  122.1487   86.7949 H   0  0  0  0  0  0  0  0  0  0  0  0
  117.5966  123.8449   85.6527 H   0  0  0  0  0  0  0  0  0  0  0  0
  118.4146  124.7374   84.3257 H   0  0  0  0  0  0  0  0  0  0  0  0
  118.4022  122.9411   84.3257 H   0  0  0  0  0  0  0  0  0  0  0  0
  126.1297  121.6844   91.5572 H   0  0  0  0  0  0  0  0  0  0  0  0
  126.8219  120.8264   90.1391 H   0  0  0  0  0  0  0  0  0  0  0  0
  126.7139  122.6194   90.1391 H   0  0  0  0  0  0  0  0  0  0  0  0
  126.9479  121.1543   88.1042 H   0  0  0  0  0  0  0  0  0  0  0  0
  1  2  1  0
  2  3  1  0
  3  4  1  0
  4  5  2  0
  5  6  1  0
  6  7  2  0
  7  8  1  0
  8  9  1  0
  9 10  1  0
 10 11  1  0
 11 12  1  0
 12 13  1  0
 12 14  2  0
  7 15  1  0
 15 16  1  0
 16 17  1  0
 15 18  2  0
 18  4  1  0
  1 19  1  0
  1 20  1  0
  1 21  1  0
  2 22  1  0
  2 23  1  0
  3 24  1  0
  3 25  1  0
  5 26  1  0
  6 27  1  0
  9 28  1  0
  9 29  1  0
 10 30  1  0
 10 31  1  0
 11 32  1  0
 13 33  1  0
 13 34  1  0
 13 35  1  0
 17 36  1  0
 17 37  1  0
 17 38  1  0
 18 39  1  0
M  END
>  <loss>  (1) 
0.3097752332687378

>  <score>  (1) 
8.360743522644043

$$$$
XACAJANRBWYFIE-UHFFFAOYSA-N
     RDKit          3D

 39 39  0  0  0  0  0  0  0  0999 V2000
  127.0691  122.6506   83.5716 C   0  0  0  0  0  0  0  0  0  0  0  0
  127.6447  122.1607   84.8930 C   0  0  0  0  0  0  0  0  0  0  0  0
  126.9585  120.8959   85.4178 C   0  0  0  0  0  0  0  0  0  0  0  0
  125.7720  121.1730   86.3091 C   0  0  0  0  0  0  0  0  0  0  0  0
  124.5024  121.3732   85.7597 C   0  0  0  0  0  0  0  0  0  0  0  0
  123.4047  121.6354   86.5835 C   0  0  0  0  0  0  0  0  0  0  0  0
  123.5604  121.7006   87.9712 C   0  0  0  0  0  0  0  0  0  0  0  0
  122.5431  121.9582   88.8562 O   0  0  0  0  0  0  0  0  0  0  0  0
  121.2066  121.7275   88.4203 C   0  0  0  0  0  0  0  0  0  0  0  0
  120.6196  123.0545   87.9411 C   0  0  0  0  0  0  0  0  0  0  0  0
  119.7712  122.8926   86.7710 N   0  0  0  0  0  0  0  0  0  0  0  0
  119.8236  123.7956   85.7315 C   0  0  0  0  0  0  0  0  0  0  0  0
  118.5193  123.9571   84.9970 C   0  0  0  0  0  0  0  0  0  0  0  0
  120.8262  124.4281   85.4200 O   0  0  0  0  0  0  0  0  0  0  0  0
  124.8361  121.5061   88.5363 C   0  0  0  0  0  0  0  0  0  0  0  0
  124.9058  121.5848   89.9059 O   0  0  0  0  0  0  0  0  0  0  0  0
  126.1941  121.6857   90.4946 C   0  0  0  0  0  0  0  0  0  0  0  0
  125.9292  121.2408   87.7019 C   0  0  0  0  0  0  0  0  0  0  0  0
  126.2449  123.3521   83.7682 H   0  0  0  0  0  0  0  0  0  0  0  0
  127.8553  123.1608   82.9958 H   0  0  0  0  0  0  0  0  0  0  0  0
  126.6911  121.7929   82.9958 H   0  0  0  0  0  0  0  0  0  0  0  0
  128.7138  121.9448   84.7501 H   0  0  0  0  0  0  0  0  0  0  0  0
  127.4794  122.9547   85.6361 H   0  0  0  0  0  0  0  0  0  0  0  0
  126.6147  120.3047   84.5562 H   0  0  0  0  0  0  0  0  0  0  0  0
  127.6994  120.3584   86.0277 H   0  0  0  0  0  0  0  0  0  0  0  0
  124.3663  121.3238   84.6693 H   0  0  0  0  0  0  0  0  0  0  0  0
  122.4115  121.7916   86.1371 H   0  0  0  0  0  0  0  0  0  0  0  0
  121.2056  121.0010   87.5943 H   0  0  0  0  0  0  0  0  0  0  0  0
  120.6037  121.3242   89.2472 H   0  0  0  0  0  0  0  0  0  0  0  0
  120.0209  123.4906   88.7544 H   0  0  0  0  0  0  0  0  0  0  0  0
  121.4566  123.7111   87.6614 H   0  0  0  0  0  0  0  0  0  0  0  0
  119.1235  122.0934   86.7187 H   0  0  0  0  0  0  0  0  0  0  0  0
  117.6995  124.0586   85.7234 H   0  0  0  0  0  0  0  0  0  0  0  0
  118.5631  124.8567   84.3655 H   0  0  0  0  0  0  0  0  0  0  0  0
  118.3423  123.0740   84.3655 H   0  0  0  0  0  0  0  0  0  0  0  0
  126.0981  121.6782   91.5904 H   0  0  0  0  0  0  0  0  0  0  0  0
  126.8112  120.8331   90.1747 H   0  0  0  0  0  0  0  0  0  0  0  0
  126.6709  122.6239   90.1747 H   0  0  0  0  0  0  0  0  0  0  0  0
  126.9241  121.0836   88.1441 H   0  0  0  0  0  0  0  0  0  0  0  0
  1  2  1  0
  2  3  1  0
  3  4  1  0
  4  5  2  0
  5  6  1  0
  6  7  2  0
  7  8  1  0
  8  9  1  0
  9 10  1  0
 10 11  1  0
 11 12  1  0
 12 13  1  0
 12 14  2  0
  7 15  1  0
 15 16  1  0
 16 17  1  0
 15 18  2  0
 18  4  1  0
  1 19  1  0
  1 20  1  0
  1 21  1  0
  2 22  1  0
  2 23  1  0
  3 24  1  0
  3 25  1  0
  5 26  1  0
  6 27  1  0
  9 28  1  0
  9 29  1  0
 10 30  1  0
 10 31  1  0
 11 32  1  0
 13 33  1  0
 13 34  1  0
 13 35  1  0
 17 36  1  0
 17 37  1  0
 17 38  1  0
 18 39  1  0
M  END
>  <loss>  (2) 
0.3104352653026581

>  <score>  (2) 
8.30868148803711

$$$$
XACAJANRBWYFIE-UHFFFAOYSA-N
     RDKit          3D

 39 39  0  0  0  0  0  0  0  0999 V2000
  126.9864  122.6856   83.4931 C   0  0  0  0  0  0  0  0  0  0  0  0
  127.6015  122.2549   84.8174 C   0  0  0  0  0  0  0  0  0  0  0  0
  126.9687  120.9836   85.3911 C   0  0  0  0  0  0  0  0  0  0  0  0
  125.7712  121.2447   86.2725 C   0  0  0  0  0  0  0  0  0  0  0  0
  124.5045  121.4325   85.7122 C   0  0  0  0  0  0  0  0  0  0  0  0
  123.3965  121.6800   86.5267 C   0  0  0  0  0  0  0  0  0  0  0  0
  123.5389  121.7426   87.9161 C   0  0  0  0  0  0  0  0  0  0  0  0
  122.5108  121.9862   88.7926 O   0  0  0  0  0  0  0  0  0  0  0  0
  121.1814  121.7373   88.3454 C   0  0  0  0  0  0  0  0  0  0  0  0
  120.5606  123.0655   87.9147 C   0  0  0  0  0  0  0  0  0  0  0  0
  119.7101  122.9235   86.7436 N   0  0  0  0  0  0  0  0  0  0  0  0
  119.7824  123.8270   85.7057 C   0  0  0  0  0  0  0  0  0  0  0  0
  118.5539  123.8569   84.8357 C   0  0  0  0  0  0  0  0  0  0  0  0
  120.7444  124.5567   85.4951 O   0  0  0  0  0  0  0  0  0  0  0  0
  124.8116  121.5605   88.4921 C   0  0  0  0  0  0  0  0  0  0  0  0
  124.8680  121.6357   89.8625 O   0  0  0  0  0  0  0  0  0  0  0  0
  126.1523  121.6708   90.4673 C   0  0  0  0  0  0  0  0  0  0  0  0
  125.9151  121.3100   87.6668 C   0  0  0  0  0  0  0  0  0  0  0  0
  126.0992  123.3068   83.6856 H   0  0  0  0  0  0  0  0  0  0  0  0
  127.7229  123.2663   82.9183 H   0  0  0  0  0  0  0  0  0  0  0  0
  126.6926  121.7949   82.9183 H   0  0  0  0  0  0  0  0  0  0  0  0
  128.6748  122.0715   84.6612 H   0  0  0  0  0  0  0  0  0  0  0  0
  127.4218  123.0645   85.5401 H   0  0  0  0  0  0  0  0  0  0  0  0
  126.6504  120.3459   84.5533 H   0  0  0  0  0  0  0  0  0  0  0  0
  127.7313  120.5014   86.0204 H   0  0  0  0  0  0  0  0  0  0  0  0
  124.3788  121.3850   84.6204 H   0  0  0  0  0  0  0  0  0  0  0  0
  122.4057  121.8266   86.0718 H   0  0  0  0  0  0  0  0  0  0  0  0
  121.2002  121.0422   87.4930 H   0  0  0  0  0  0  0  0  0  0  0  0
  120.5882  121.2880   89.1555 H   0  0  0  0  0  0  0  0  0  0  0  0
  119.9561  123.4592   88.7451 H   0  0  0  0  0  0  0  0  0  0  0  0
  121.3803  123.7511   87.6539 H   0  0  0  0  0  0  0  0  0  0  0  0
  119.0458  122.1383   86.6893 H   0  0  0  0  0  0  0  0  0  0  0  0
  117.6557  123.8787   85.4703 H   0  0  0  0  0  0  0  0  0  0  0  0
  118.5761  124.7547   84.2007 H   0  0  0  0  0  0  0  0  0  0  0  0
  118.5325  122.9590   84.2007 H   0  0  0  0  0  0  0  0  0  0  0  0
  126.0423  121.6678   91.5618 H   0  0  0  0  0  0  0  0  0  0  0  0
  126.7292  120.7880   90.1543 H   0  0  0  0  0  0  0  0  0  0  0  0
  126.6801  122.5837   90.1543 H   0  0  0  0  0  0  0  0  0  0  0  0
  126.9076  121.1624   88.1176 H   0  0  0  0  0  0  0  0  0  0  0  0
  1  2  1  0
  2  3  1  0
  3  4  1  0
  4  5  2  0
  5  6  1  0
  6  7  2  0
  7  8  1  0
  8  9  1  0
  9 10  1  0
 10 11  1  0
 11 12  1  0
 12 13  1  0
 12 14  2  0
  7 15  1  0
 15 16  1  0
 16 17  1  0
 15 18  2  0
 18  4  1  0
  1 19  1  0
  1 20  1  0
  1 21  1  0
  2 22  1  0
  2 23  1  0
  3 24  1  0
  3 25  1  0
  5 26  1  0
  6 27  1  0
  9 28  1  0
  9 29  1  0
 10 30  1  0
 10 31  1  0
 11 32  1  0
 13 33  1  0
 13 34  1  0
 13 35  1  0
 17 36  1  0
 17 37  1  0
 17 38  1  0
 18 39  1  0
M  END
>  <loss>  (3) 
0.3083491623401642

>  <score>  (3) 
8.253896713256836

$$$$
XACAJANRBWYFIE-UHFFFAOYSA-N
     RDKit          3D

 39 39  0  0  0  0  0  0  0  0999 V2000
  126.9200  122.8619   83.5449 C   0  0  0  0  0  0  0  0  0  0  0  0
  127.5211  122.3173   84.8332 C   0  0  0  0  0  0  0  0  0  0  0  0
  126.8473  121.0292   85.3157 C   0  0  0  0  0  0  0  0  0  0  0  0
  125.6837  121.2642   86.2484 C   0  0  0  0  0  0  0  0  0  0  0  0
  124.3944  121.4519   85.7421 C   0  0  0  0  0  0  0  0  0  0  0  0
  123.3178  121.6752   86.6043 C   0  0  0  0  0  0  0  0  0  0  0  0
  123.5146  121.7132   87.9878 C   0  0  0  0  0  0  0  0  0  0  0  0
  122.5203  121.9320   88.9086 O   0  0  0  0  0  0  0  0  0  0  0  0
  121.1720  121.7384   88.4916 C   0  0  0  0  0  0  0  0  0  0  0  0
  120.5996  123.0900   88.0665 C   0  0  0  0  0  0  0  0  0  0  0  0
  119.7052  122.9767   86.9254 N   0  0  0  0  0  0  0  0  0  0  0  0
  119.8738  123.7752   85.8151 C   0  0  0  0  0  0  0  0  0  0  0  0
  118.5867  124.1404   85.1247 C   0  0  0  0  0  0  0  0  0  0  0  0
  120.9614  124.1719   85.4123 O   0  0  0  0  0  0  0  0  0  0  0  0
  124.8104  121.5309   88.5097 C   0  0  0  0  0  0  0  0  0  0  0  0
  124.9205  121.5811   89.8779 O   0  0  0  0  0  0  0  0  0  0  0  0
  126.2263  121.6550   90.4308 C   0  0  0  0  0  0  0  0  0  0  0  0
  125.8822  121.3047   87.6369 C   0  0  0  0  0  0  0  0  0  0  0  0
  126.1249  123.5824   83.7873 H   0  0  0  0  0  0  0  0  0  0  0  0
  127.7034  123.3640   82.9584 H   0  0  0  0  0  0  0  0  0  0  0  0
  126.4973  122.0329   82.9584 H   0  0  0  0  0  0  0  0  0  0  0  0
  128.5878  122.1106   84.6614 H   0  0  0  0  0  0  0  0  0  0  0  0
  127.3681  123.0781   85.6127 H   0  0  0  0  0  0  0  0  0  0  0  0
  126.4815  120.4786   84.4365 H   0  0  0  0  0  0  0  0  0  0  0  0
  127.6029  120.4642   85.8812 H   0  0  0  0  0  0  0  0  0  0  0  0
  124.2260  121.4236   84.6555 H   0  0  0  0  0  0  0  0  0  0  0  0
  122.3087  121.8220   86.1917 H   0  0  0  0  0  0  0  0  0  0  0  0
  121.1424  121.0391   87.6430 H   0  0  0  0  0  0  0  0  0  0  0  0
  120.5777  121.3190   89.3168 H   0  0  0  0  0  0  0  0  0  0  0  0
  120.0418  123.5194   88.9118 H   0  0  0  0  0  0  0  0  0  0  0  0
  121.4412  123.7340   87.7717 H   0  0  0  0  0  0  0  0  0  0  0  0
  118.9365  122.2915   86.9474 H   0  0  0  0  0  0  0  0  0  0  0  0
  117.8157  124.3592   85.8781 H   0  0  0  0  0  0  0  0  0  0  0  0
  118.7472  125.0285   84.4957 H   0  0  0  0  0  0  0  0  0  0  0  0
  118.2569  123.3004   84.4957 H   0  0  0  0  0  0  0  0  0  0  0  0
  126.1604  121.6512   91.5288 H   0  0  0  0  0  0  0  0  0  0  0  0
  126.8158  120.7887   90.0960 H   0  0  0  0  0  0  0  0  0  0  0  0
  126.7144  122.5822   90.0960 H   0  0  0  0  0  0  0  0  0  0  0  0
  126.8928  121.1570   88.0453 H   0  0  0  0  0  0  0  0  0  0  0  0
  1  2  1  0
  2  3  1  0
  3  4  1  0
  4  5  2  0
  5  6  1  0
  6  7  2  0
  7  8  1  0
  8  9  1  0
  9 10  1  0
 10 11  1  0
 11 12  1  0
 12 13  1  0
 12 14  2  0
  7 15  1  0
 15 16  1  0
 16 17  1  0
 15 18  2  0
 18  4  1  0
  1 19  1  0
  1 20  1  0
  1 21  1  0
  2 22  1  0
  2 23  1  0
  3 24  1  0
  3 25  1  0
  5 26  1  0
  6 27  1  0
  9 28  1  0
  9 29  1  0
 10 30  1  0
 10 31  1  0
 11 32  1  0
 13 33  1  0
 13 34  1  0
 13 35  1  0
 17 36  1  0
 17 37  1  0
 17 38  1  0
 18 39  1  0
M  END
>  <loss>  (4) 
0.29049038887023926

>  <score>  (4) 
8.158769607543945

$$$$
XACAJANRBWYFIE-UHFFFAOYSA-N
     RDKit          3D

 39 39  0  0  0  0  0  0  0  0999 V2000
  126.8668  122.7472   83.4491 C   0  0  0  0  0  0  0  0  0  0  0  0
  127.5672  122.3412   84.7385 C   0  0  0  0  0  0  0  0  0  0  0  0
  126.9992  121.0596   85.3554 C   0  0  0  0  0  0  0  0  0  0  0  0
  125.7941  121.2902   86.2348 C   0  0  0  0  0  0  0  0  0  0  0  0
  124.5226  121.4371   85.6730 C   0  0  0  0  0  0  0  0  0  0  0  0
  123.4073  121.6564   86.4857 C   0  0  0  0  0  0  0  0  0  0  0  0
  123.5471  121.7312   87.8747 C   0  0  0  0  0  0  0  0  0  0  0  0
  122.5118  121.9493   88.7494 O   0  0  0  0  0  0  0  0  0  0  0  0
  121.1862  121.7118   88.2848 C   0  0  0  0  0  0  0  0  0  0  0  0
  120.5645  123.0519   87.8941 C   0  0  0  0  0  0  0  0  0  0  0  0
  119.6970  122.9404   86.7323 N   0  0  0  0  0  0  0  0  0  0  0  0
  119.7901  123.8408   85.6934 C   0  0  0  0  0  0  0  0  0  0  0  0
  118.5833  123.8614   84.7935 C   0  0  0  0  0  0  0  0  0  0  0  0
  120.7533  124.5748   85.5040 O   0  0  0  0  0  0  0  0  0  0  0  0
  124.8243  121.5903   88.4522 C   0  0  0  0  0  0  0  0  0  0  0  0
  124.8777  121.6750   89.8221 O   0  0  0  0  0  0  0  0  0  0  0  0
  126.1607  121.7162   90.4294 C   0  0  0  0  0  0  0  0  0  0  0  0
  125.9352  121.3678   87.6288 C   0  0  0  0  0  0  0  0  0  0  0  0
  125.9383  123.2855   83.6900 H   0  0  0  0  0  0  0  0  0  0  0  0
  127.5286  123.4018   82.8628 H   0  0  0  0  0  0  0  0  0  0  0  0
  126.6277  121.8477   82.8628 H   0  0  0  0  0  0  0  0  0  0  0  0
  128.6338  122.1822   84.5219 H   0  0  0  0  0  0  0  0  0  0  0  0
  127.4097  123.1517   85.4653 H   0  0  0  0  0  0  0  0  0  0  0  0
  126.7089  120.3809   84.5399 H   0  0  0  0  0  0  0  0  0  0  0  0
  127.7869  120.6351   85.9953 H   0  0  0  0  0  0  0  0  0  0  0  0
  124.3990  121.3796   84.5814 H   0  0  0  0  0  0  0  0  0  0  0  0
  122.4129  121.7708   86.0296 H   0  0  0  0  0  0  0  0  0  0  0  0
  121.2130  121.0455   87.4100 H   0  0  0  0  0  0  0  0  0  0  0  0
  120.5887  121.2342   89.0753 H   0  0  0  0  0  0  0  0  0  0  0  0
  119.9735  123.4282   88.7420 H   0  0  0  0  0  0  0  0  0  0  0  0
  121.3832  123.7404   87.6377 H   0  0  0  0  0  0  0  0  0  0  0  0
  119.0046  122.1792   86.6854 H   0  0  0  0  0  0  0  0  0  0  0  0
  117.6696  123.8771   85.4057 H   0  0  0  0  0  0  0  0  0  0  0  0
  118.6147  124.7592   84.1586 H   0  0  0  0  0  0  0  0  0  0  0  0
  118.5839  122.9632   84.1586 H   0  0  0  0  0  0  0  0  0  0  0  0
  126.0487  121.7126   91.5237 H   0  0  0  0  0  0  0  0  0  0  0  0
  126.7424  120.8363   90.1175 H   0  0  0  0  0  0  0  0  0  0  0  0
  126.6848  122.6316   90.1175 H   0  0  0  0  0  0  0  0  0  0  0  0
  126.9314  121.2523   88.0808 H   0  0  0  0  0  0  0  0  0  0  0  0
  1  2  1  0
  2  3  1  0
  3  4  1  0
  4  5  2  0
  5  6  1  0
  6  7  2  0
  7  8  1  0
  8  9  1  0
  9 10  1  0
 10 11  1  0
 11 12  1  0
 12 13  1  0
 12 14  2  0
  7 15  1  0
 15 16  1  0
 16 17  1  0
 15 18  2  0
 18  4  1  0
  1 19  1  0
  1 20  1  0
  1 21  1  0
  2 22  1  0
  2 23  1  0
  3 24  1  0
  3 25  1  0
  5 26  1  0
  6 27  1  0
  9 28  1  0
  9 29  1  0
 10 30  1  0
 10 31  1  0
 11 32  1  0
 13 33  1  0
 13 34  1  0
 13 35  1  0
 17 36  1  0
 17 37  1  0
 17 38  1  0
 18 39  1  0
M  END
>  <loss>  (5) 
0.3123348355293274

>  <score>  (5) 
8.232590675354004

$$$$
XACAJANRBWYFIE-UHFFFAOYSA-N
     RDKit          3D

 39 39  0  0  0  0  0  0  0  0999 V2000
  126.9196  122.6804   83.4265 C   0  0  0  0  0  0  0  0  0  0  0  0
  127.5245  122.3907   84.7932 C   0  0  0  0  0  0  0  0  0  0  0  0
  127.0171  121.0855   85.4134 C   0  0  0  0  0  0  0  0  0  0  0  0
  125.7946  121.2609   86.2809 C   0  0  0  0  0  0  0  0  0  0  0  0
  124.5232  121.3323   85.7049 C   0  0  0  0  0  0  0  0  0  0  0  0
  123.3868  121.4867   86.5032 C   0  0  0  0  0  0  0  0  0  0  0  0
  123.5037  121.5727   87.8936 C   0  0  0  0  0  0  0  0  0  0  0  0
  122.4504  121.7197   88.7619 O   0  0  0  0  0  0  0  0  0  0  0  0
  121.4926  122.7486   88.5223 C   0  0  0  0  0  0  0  0  0  0  0  0
  120.4394  122.2898   87.5106 C   0  0  0  0  0  0  0  0  0  0  0  0
  119.6145  123.3766   87.0166 N   0  0  0  0  0  0  0  0  0  0  0  0
  119.7544  123.8549   85.7352 C   0  0  0  0  0  0  0  0  0  0  0  0
  118.5225  123.7172   84.8824 C   0  0  0  0  0  0  0  0  0  0  0  0
  120.7855  124.3706   85.3156 O   0  0  0  0  0  0  0  0  0  0  0  0
  124.7808  121.4979   88.4859 C   0  0  0  0  0  0  0  0  0  0  0  0
  124.8136  121.5801   89.8574 O   0  0  0  0  0  0  0  0  0  0  0  0
  126.0870  121.6197   90.4842 C   0  0  0  0  0  0  0  0  0  0  0  0
  125.9138  121.3439   87.6759 C   0  0  0  0  0  0  0  0  0  0  0  0
  125.9342  123.1523   83.5542 H   0  0  0  0  0  0  0  0  0  0  0  0
  127.5818  123.3591   82.8689 H   0  0  0  0  0  0  0  0  0  0  0  0
  126.8059  121.7390   82.8689 H   0  0  0  0  0  0  0  0  0  0  0  0
  128.6172  122.3247   84.6851 H   0  0  0  0  0  0  0  0  0  0  0  0
  127.2242  123.2094   85.4637 H   0  0  0  0  0  0  0  0  0  0  0  0
  126.7685  120.3881   84.5998 H   0  0  0  0  0  0  0  0  0  0  0  0
  127.8197  120.7046   86.0621 H   0  0  0  0  0  0  0  0  0  0  0  0
  124.4160  121.2664   84.6121 H   0  0  0  0  0  0  0  0  0  0  0  0
  122.3933  121.5409   86.0343 H   0  0  0  0  0  0  0  0  0  0  0  0
  120.9948  123.0048   89.4692 H   0  0  0  0  0  0  0  0  0  0  0  0
  122.0144  123.6261   88.1128 H   0  0  0  0  0  0  0  0  0  0  0  0
  120.9533  121.8241   86.6569 H   0  0  0  0  0  0  0  0  0  0  0  0
  119.7747  121.5815   88.0269 H   0  0  0  0  0  0  0  0  0  0  0  0
  118.9098  123.7982   87.6384 H   0  0  0  0  0  0  0  0  0  0  0  0
  117.6381  123.6184   85.5290 H   0  0  0  0  0  0  0  0  0  0  0  0
  118.4146  124.6089   84.2473 H   0  0  0  0  0  0  0  0  0  0  0  0
  118.6141  122.8237   84.2473 H   0  0  0  0  0  0  0  0  0  0  0  0
  125.9583  121.6157   91.5766 H   0  0  0  0  0  0  0  0  0  0  0  0
  126.6726  120.7394   90.1807 H   0  0  0  0  0  0  0  0  0  0  0  0
  126.6168  122.5348   90.1807 H   0  0  0  0  0  0  0  0  0  0  0  0
  126.9095  121.2874   88.1400 H   0  0  0  0  0  0  0  0  0  0  0  0
  1  2  1  0
  2  3  1  0
  3  4  1  0
  4  5  2  0
  5  6  1  0
  6  7  2  0
  7  8  1  0
  8  9  1  0
  9 10  1  0
 10 11  1  0
 11 12  1  0
 12 13  1  0
 12 14  2  0
  7 15  1  0
 15 16  1  0
 16 17  1  0
 15 18  2  0
 18  4  1  0
  1 19  1  0
  1 20  1  0
  1 21  1  0
  2 22  1  0
  2 23  1  0
  3 24  1  0
  3 25  1  0
  5 26  1  0
  6 27  1  0
  9 28  1  0
  9 29  1  0
 10 30  1  0
 10 31  1  0
 11 32  1  0
 13 33  1  0
 13 34  1  0
 13 35  1  0
 17 36  1  0
 17 37  1  0
 17 38  1  0
 18 39  1  0
M  END
>  <loss>  (6) 
0.32355761528015137

>  <score>  (6) 
8.252507209777832

$$$$
XACAJANRBWYFIE-UHFFFAOYSA-N
     RDKit          3D

 39 39  0  0  0  0  0  0  0  0999 V2000
  127.4528  123.3850   84.4995 C   0  0  0  0  0  0  0  0  0  0  0  0
  126.8963  122.0097   84.1682 C   0  0  0  0  0  0  0  0  0  0  0  0
  126.9489  121.0790   85.3806 C   0  0  0  0  0  0  0  0  0  0  0  0
  125.7699  121.2918   86.2988 C   0  0  0  0  0  0  0  0  0  0  0  0
  124.4752  121.3892   85.7747 C   0  0  0  0  0  0  0  0  0  0  0  0
  123.3850  121.5700   86.6237 C   0  0  0  0  0  0  0  0  0  0  0  0
  123.5867  121.6638   88.0014 C   0  0  0  0  0  0  0  0  0  0  0  0
  122.5114  121.8014   88.8428 O   0  0  0  0  0  0  0  0  0  0  0  0
  121.2489  121.6651   88.1674 C   0  0  0  0  0  0  0  0  0  0  0  0
  120.5327  123.0091   88.0099 C   0  0  0  0  0  0  0  0  0  0  0  0
  119.6072  122.9923   86.8913 N   0  0  0  0  0  0  0  0  0  0  0  0
  119.8446  123.7421   85.7643 C   0  0  0  0  0  0  0  0  0  0  0  0
  118.9469  124.9427   85.6393 C   0  0  0  0  0  0  0  0  0  0  0  0
  120.6806  123.4553   84.9143 O   0  0  0  0  0  0  0  0  0  0  0  0
  124.8703  121.5302   88.5533 C   0  0  0  0  0  0  0  0  0  0  0  0
  124.9516  121.6032   89.9220 O   0  0  0  0  0  0  0  0  0  0  0  0
  126.2191  121.3305   90.5091 C   0  0  0  0  0  0  0  0  0  0  0  0
  125.9576  121.3548   87.6911 C   0  0  0  0  0  0  0  0  0  0  0  0
  127.5023  123.5072   85.5915 H   0  0  0  0  0  0  0  0  0  0  0  0
  128.4620  123.4845   84.0733 H   0  0  0  0  0  0  0  0  0  0  0  0
  126.7969  124.1584   84.0733 H   0  0  0  0  0  0  0  0  0  0  0  0
  125.8506  122.1156   83.8436 H   0  0  0  0  0  0  0  0  0  0  0  0
  127.5111  121.5711   83.3685 H   0  0  0  0  0  0  0  0  0  0  0  0
  126.9443  120.0363   85.0302 H   0  0  0  0  0  0  0  0  0  0  0  0
  127.8671  121.3011   85.9442 H   0  0  0  0  0  0  0  0  0  0  0  0
  124.3179  121.3227   84.6880 H   0  0  0  0  0  0  0  0  0  0  0  0
  122.3684  121.6385   86.2091 H   0  0  0  0  0  0  0  0  0  0  0  0
  121.4249  121.2378   87.1692 H   0  0  0  0  0  0  0  0  0  0  0  0
  120.6085  121.0088   88.7749 H   0  0  0  0  0  0  0  0  0  0  0  0
  119.9743  123.2265   88.9324 H   0  0  0  0  0  0  0  0  0  0  0  0
  121.2905  123.7831   87.8186 H   0  0  0  0  0  0  0  0  0  0  0  0
  118.7596  122.4095   86.9432 H   0  0  0  0  0  0  0  0  0  0  0  0
  118.6764  125.3044   86.6423 H   0  0  0  0  0  0  0  0  0  0  0  0
  119.4732  125.7387   85.0920 H   0  0  0  0  0  0  0  0  0  0  0  0
  118.0346  124.6630   85.0920 H   0  0  0  0  0  0  0  0  0  0  0  0
  126.1273  121.3503   91.6051 H   0  0  0  0  0  0  0  0  0  0  0  0
  126.5658  120.3372   90.1880 H   0  0  0  0  0  0  0  0  0  0  0  0
  126.9436  122.0934   90.1880 H   0  0  0  0  0  0  0  0  0  0  0  0
  126.9719  121.2650   88.1071 H   0  0  0  0  0  0  0  0  0  0  0  0
  1  2  1  0
  2  3  1  0
  3  4  1  0
  4  5  2  0
  5  6  1  0
  6  7  2  0
  7  8  1  0
  8  9  1  0
  9 10  1  0
 10 11  1  0
 11 12  1  0
 12 13  1  0
 12 14  2  0
  7 15  1  0
 15 16  1  0
 16 17  1  0
 15 18  2  0
 18  4  1  0
  1 19  1  0
  1 20  1  0
  1 21  1  0
  2 22  1  0
  2 23  1  0
  3 24  1  0
  3 25  1  0
  5 26  1  0
  6 27  1  0
  9 28  1  0
  9 29  1  0
 10 30  1  0
 10 31  1  0
 11 32  1  0
 13 33  1  0
 13 34  1  0
 13 35  1  0
 17 36  1  0
 17 37  1  0
 17 38  1  0
 18 39  1  0
M  END
>  <loss>  (7) 
0.30357906222343445

>  <score>  (7) 
8.0958833694458

$$$$
XACAJANRBWYFIE-UHFFFAOYSA-N
     RDKit          3D

 39 39  0  0  0  0  0  0  0  0999 V2000
  127.0255  122.7565   83.4882 C   0  0  0  0  0  0  0  0  0  0  0  0
  127.5539  122.4991   84.8926 C   0  0  0  0  0  0  0  0  0  0  0  0
  127.1002  121.1556   85.4713 C   0  0  0  0  0  0  0  0  0  0  0  0
  125.8555  121.2496   86.3197 C   0  0  0  0  0  0  0  0  0  0  0  0
  124.5918  121.2566   85.7228 C   0  0  0  0  0  0  0  0  0  0  0  0
  123.4355  121.3354   86.5033 C   0  0  0  0  0  0  0  0  0  0  0  0
  123.5243  121.4090   87.8965 C   0  0  0  0  0  0  0  0  0  0  0  0
  122.4502  121.4842   88.7483 O   0  0  0  0  0  0  0  0  0  0  0  0
  121.5468  122.5812   88.6300 C   0  0  0  0  0  0  0  0  0  0  0  0
  120.4479  122.2764   87.6089 C   0  0  0  0  0  0  0  0  0  0  0  0
  119.7849  123.4688   87.1145 N   0  0  0  0  0  0  0  0  0  0  0  0
  119.7827  123.7826   85.7759 C   0  0  0  0  0  0  0  0  0  0  0  0
  118.4388  124.1894   85.2351 C   0  0  0  0  0  0  0  0  0  0  0  0
  120.7888  123.7562   85.0744 O   0  0  0  0  0  0  0  0  0  0  0  0
  124.7937  121.3986   88.5097 C   0  0  0  0  0  0  0  0  0  0  0  0
  124.7990  121.4640   89.8825 O   0  0  0  0  0  0  0  0  0  0  0  0
  126.0591  121.5359   90.5331 C   0  0  0  0  0  0  0  0  0  0  0  0
  125.9468  121.3202   87.7175 C   0  0  0  0  0  0  0  0  0  0  0  0
  126.0383  123.2376   83.5504 H   0  0  0  0  0  0  0  0  0  0  0  0
  127.7217  123.4164   82.9498 H   0  0  0  0  0  0  0  0  0  0  0  0
  126.9349  121.8016   82.9498 H   0  0  0  0  0  0  0  0  0  0  0  0
  128.6533  122.5124   84.8604 H   0  0  0  0  0  0  0  0  0  0  0  0
  127.1498  123.2884   85.5436 H   0  0  0  0  0  0  0  0  0  0  0  0
  126.9003  120.4677   84.6365 H   0  0  0  0  0  0  0  0  0  0  0  0
  127.9089  120.7979   86.1255 H   0  0  0  0  0  0  0  0  0  0  0  0
  124.5066  121.1996   84.6276 H   0  0  0  0  0  0  0  0  0  0  0  0
  122.4483  121.3396   86.0180 H   0  0  0  0  0  0  0  0  0  0  0  0
  121.0847  122.7744   89.6094 H   0  0  0  0  0  0  0  0  0  0  0  0
  122.1082  123.4636   88.2892 H   0  0  0  0  0  0  0  0  0  0  0  0
  120.8989  121.7475   86.7563 H   0  0  0  0  0  0  0  0  0  0  0  0
  119.6878  121.6648   88.1170 H   0  0  0  0  0  0  0  0  0  0  0  0
  119.3062  124.0926   87.7798 H   0  0  0  0  0  0  0  0  0  0  0  0
  117.7546  124.3965   86.0711 H   0  0  0  0  0  0  0  0  0  0  0  0
  118.5499  125.0942   84.6194 H   0  0  0  0  0  0  0  0  0  0  0  0
  118.0295  123.3749   84.6194 H   0  0  0  0  0  0  0  0  0  0  0  0
  125.9101  121.5274   91.6229 H   0  0  0  0  0  0  0  0  0  0  0  0
  126.6728  120.6713   90.2401 H   0  0  0  0  0  0  0  0  0  0  0  0
  126.5705  122.4647   90.2401 H   0  0  0  0  0  0  0  0  0  0  0  0
  126.9362  121.3140   88.1980 H   0  0  0  0  0  0  0  0  0  0  0  0
  1  2  1  0
  2  3  1  0
  3  4  1  0
  4  5  2  0
  5  6  1  0
  6  7  2  0
  7  8  1  0
  8  9  1  0
  9 10  1  0
 10 11  1  0
 11 12  1  0
 12 13  1  0
 12 14  2  0
  7 15  1  0
 15 16  1  0
 16 17  1  0
 15 18  2  0
 18  4  1  0
  1 19  1  0
  1 20  1  0
  1 21  1  0
  2 22  1  0
  2 23  1  0
  3 24  1  0
  3 25  1  0
  5 26  1  0
  6 27  1  0
  9 28  1  0
  9 29  1  0
 10 30  1  0
 10 31  1  0
 11 32  1  0
 13 33  1  0
 13 34  1  0
 13 35  1  0
 17 36  1  0
 17 37  1  0
 17 38  1  0
 18 39  1  0
M  END
>  <loss>  (8) 
0.3268502652645111

>  <score>  (8) 
8.150437355041504

$$$$
XACAJANRBWYFIE-UHFFFAOYSA-N
     RDKit          3D

 39 39  0  0  0  0  0  0  0  0999 V2000
  127.0106  122.9340   83.7116 C   0  0  0  0  0  0  0  0  0  0  0  0
  127.5532  122.2651   84.9645 C   0  0  0  0  0  0  0  0  0  0  0  0
  126.8010  120.9711   85.2769 C   0  0  0  0  0  0  0  0  0  0  0  0
  125.6475  121.2111   86.2195 C   0  0  0  0  0  0  0  0  0  0  0  0
  124.3624  121.4421   85.7210 C   0  0  0  0  0  0  0  0  0  0  0  0
  123.2960  121.6819   86.5911 C   0  0  0  0  0  0  0  0  0  0  0  0
  123.5010  121.7003   87.9741 C   0  0  0  0  0  0  0  0  0  0  0  0
  122.5131  121.9202   88.9018 O   0  0  0  0  0  0  0  0  0  0  0  0
  121.1601  121.7296   88.4874 C   0  0  0  0  0  0  0  0  0  0  0  0
  120.5981  123.0926   88.0759 C   0  0  0  0  0  0  0  0  0  0  0  0
  119.6659  123.0327   86.9635 N   0  0  0  0  0  0  0  0  0  0  0  0
  119.8512  123.7777   85.8229 C   0  0  0  0  0  0  0  0  0  0  0  0
  118.5853  124.0751   85.0651 C   0  0  0  0  0  0  0  0  0  0  0  0
  120.9469  124.1726   85.4396 O   0  0  0  0  0  0  0  0  0  0  0  0
  124.7921  121.4682   88.4880 C   0  0  0  0  0  0  0  0  0  0  0  0
  124.9117  121.5071   89.8563 O   0  0  0  0  0  0  0  0  0  0  0  0
  126.2125  121.6873   90.3965 C   0  0  0  0  0  0  0  0  0  0  0  0
  125.8550  121.2317   87.6069 C   0  0  0  0  0  0  0  0  0  0  0  0
  126.3413  123.7590   83.9969 H   0  0  0  0  0  0  0  0  0  0  0  0
  127.8464  123.3294   83.1156 H   0  0  0  0  0  0  0  0  0  0  0  0
  126.4515  122.1976   83.1156 H   0  0  0  0  0  0  0  0  0  0  0  0
  128.6177  122.0327   84.8135 H   0  0  0  0  0  0  0  0  0  0  0  0
  127.4204  122.9555   85.8105 H   0  0  0  0  0  0  0  0  0  0  0  0
  126.4127  120.5488   84.3384 H   0  0  0  0  0  0  0  0  0  0  0  0
  127.5015  120.2752   85.7616 H   0  0  0  0  0  0  0  0  0  0  0  0
  124.1892  121.4352   84.6348 H   0  0  0  0  0  0  0  0  0  0  0  0
  122.2886  121.8573   86.1856 H   0  0  0  0  0  0  0  0  0  0  0  0
  121.1247  121.0373   87.6333 H   0  0  0  0  0  0  0  0  0  0  0  0
  120.5648  121.3011   89.3072 H   0  0  0  0  0  0  0  0  0  0  0  0
  120.0772  123.5282   88.9414 H   0  0  0  0  0  0  0  0  0  0  0  0
  121.4511  123.7034   87.7455 H   0  0  0  0  0  0  0  0  0  0  0  0
  118.8440  122.4155   87.0309 H   0  0  0  0  0  0  0  0  0  0  0  0
  117.7686  124.2670   85.7766 H   0  0  0  0  0  0  0  0  0  0  0  0
  118.7364  124.9622   84.4325 H   0  0  0  0  0  0  0  0  0  0  0  0
  118.3256  123.2135   84.4325 H   0  0  0  0  0  0  0  0  0  0  0  0
  126.1576  121.6797   91.4951 H   0  0  0  0  0  0  0  0  0  0  0  0
  126.8671  120.8713   90.0565 H   0  0  0  0  0  0  0  0  0  0  0  0
  126.6205  122.6506   90.0565 H   0  0  0  0  0  0  0  0  0  0  0  0
  126.8649  121.0599   88.0077 H   0  0  0  0  0  0  0  0  0  0  0  0
  1  2  1  0
  2  3  1  0
  3  4  1  0
  4  5  2  0
  5  6  1  0
  6  7  2  0
  7  8  1  0
  8  9  1  0
  9 10  1  0
 10 11  1  0
 11 12  1  0
 12 13  1  0
 12 14  2  0
  7 15  1  0
 15 16  1  0
 16 17  1  0
 15 18  2  0
 18  4  1  0
  1 19  1  0
  1 20  1  0
  1 21  1  0
  2 22  1  0
  2 23  1  0
  3 24  1  0
  3 25  1  0
  5 26  1  0
  6 27  1  0
  9 28  1  0
  9 29  1  0
 10 30  1  0
 10 31  1  0
 11 32  1  0
 13 33  1  0
 13 34  1  0
 13 35  1  0
 17 36  1  0
 17 37  1  0
 17 38  1  0
 18 39  1  0
M  END
>  <loss>  (9) 
0.290103018283844

>  <score>  (9) 
7.927335262298584

$$$$
XACAJANRBWYFIE-UHFFFAOYSA-N
     RDKit          3D

 39 39  0  0  0  0  0  0  0  0999 V2000
  127.5447  123.2016   84.4252 C   0  0  0  0  0  0  0  0  0  0  0  0
  126.8197  121.8884   84.1786 C   0  0  0  0  0  0  0  0  0  0  0  0
  126.8888  120.9738   85.4024 C   0  0  0  0  0  0  0  0  0  0  0  0
  125.7383  121.2196   86.3481 C   0  0  0  0  0  0  0  0  0  0  0  0
  124.4399  121.3876   85.8520 C   0  0  0  0  0  0  0  0  0  0  0  0
  123.3753  121.5989   86.7262 C   0  0  0  0  0  0  0  0  0  0  0  0
  123.6071  121.6528   88.1013 C   0  0  0  0  0  0  0  0  0  0  0  0
  122.5553  121.8205   88.9666 O   0  0  0  0  0  0  0  0  0  0  0  0
  121.2772  121.8000   88.3074 C   0  0  0  0  0  0  0  0  0  0  0  0
  121.2375  122.7405   87.0999 C   0  0  0  0  0  0  0  0  0  0  0  0
  119.8810  123.1571   86.7928 N   0  0  0  0  0  0  0  0  0  0  0  0
  119.6111  123.9361   85.6932 C   0  0  0  0  0  0  0  0  0  0  0  0
  118.1669  123.9058   85.2731 C   0  0  0  0  0  0  0  0  0  0  0  0
  120.4605  124.5737   85.0804 O   0  0  0  0  0  0  0  0  0  0  0  0
  124.8934  121.4486   88.6246 C   0  0  0  0  0  0  0  0  0  0  0  0
  125.0038  121.4873   89.9926 O   0  0  0  0  0  0  0  0  0  0  0  0
  126.2695  121.8568   90.5282 C   0  0  0  0  0  0  0  0  0  0  0  0
  125.9550  121.2431   87.7374 C   0  0  0  0  0  0  0  0  0  0  0  0
  127.6383  123.3710   85.5080 H   0  0  0  0  0  0  0  0  0  0  0  0
  128.5465  123.1579   83.9730 H   0  0  0  0  0  0  0  0  0  0  0  0
  126.9740  124.0261   83.9730 H   0  0  0  0  0  0  0  0  0  0  0  0
  125.7649  122.0997   83.9489 H   0  0  0  0  0  0  0  0  0  0  0  0
  127.3080  121.3766   83.3362 H   0  0  0  0  0  0  0  0  0  0  0  0
  126.8573  119.9266   85.0671 H   0  0  0  0  0  0  0  0  0  0  0  0
  127.8253  121.1878   85.9383 H   0  0  0  0  0  0  0  0  0  0  0  0
  124.2592  121.3525   84.7675 H   0  0  0  0  0  0  0  0  0  0  0  0
  122.3554  121.7229   86.3334 H   0  0  0  0  0  0  0  0  0  0  0  0
  121.0705  120.7750   87.9658 H   0  0  0  0  0  0  0  0  0  0  0  0
  120.5188  122.1409   89.0276 H   0  0  0  0  0  0  0  0  0  0  0  0
  121.8434  123.6315   87.3211 H   0  0  0  0  0  0  0  0  0  0  0  0
  121.6376  122.2003   86.2292 H   0  0  0  0  0  0  0  0  0  0  0  0
  119.1089  122.8642   87.4085 H   0  0  0  0  0  0  0  0  0  0  0  0
  117.5254  123.8923   86.1666 H   0  0  0  0  0  0  0  0  0  0  0  0
  117.9409  124.7994   84.6728 H   0  0  0  0  0  0  0  0  0  0  0  0
  117.9786  123.0035   84.6728 H   0  0  0  0  0  0  0  0  0  0  0  0
  126.2209  121.8426   91.6271 H   0  0  0  0  0  0  0  0  0  0  0  0
  127.0346  121.1444   90.1858 H   0  0  0  0  0  0  0  0  0  0  0  0
  126.5313  122.8688   90.1858 H   0  0  0  0  0  0  0  0  0  0  0  0
  126.9718  121.0979   88.1312 H   0  0  0  0  0  0  0  0  0  0  0  0
  1  2  1  0
  2  3  1  0
  3  4  1  0
  4  5  2  0
  5  6  1  0
  6  7  2  0
  7  8  1  0
  8  9  1  0
  9 10  1  0
 10 11  1  0
 11 12  1  0
 12 13  1  0
 12 14  2  0
  7 15  1  0
 15 16  1  0
 16 17  1  0
 15 18  2  0
 18  4  1  0
  1 19  1  0
  1 20  1  0
  1 21  1  0
  2 22  1  0
  2 23  1  0
  3 24  1  0
  3 25  1  0
  5 26  1  0
  6 27  1  0
  9 28  1  0
  9 29  1  0
 10 30  1  0
 10 31  1  0
 11 32  1  0
 13 33  1  0
 13 34  1  0
 13 35  1  0
 17 36  1  0
 17 37  1  0
 17 38  1  0
 18 39  1  0
M  END
>  <loss>  (10) 
0.3498930335044861

>  <score>  (10) 
8.149577140808105

$$$$
XACAJANRBWYFIE-UHFFFAOYSA-N
     RDKit          3D

 39 39  0  0  0  0  0  0  0  0999 V2000
  127.0537  122.4233   83.4599 C   0  0  0  0  0  0  0  0  0  0  0  0
  127.6484  122.2156   84.8436 C   0  0  0  0  0  0  0  0  0  0  0  0
  127.1044  120.9463   85.5003 C   0  0  0  0  0  0  0  0  0  0  0  0
  125.8639  121.2269   86.3121 C   0  0  0  0  0  0  0  0  0  0  0  0
  124.6438  121.4754   85.6772 C   0  0  0  0  0  0  0  0  0  0  0  0
  123.4975  121.7527   86.4262 C   0  0  0  0  0  0  0  0  0  0  0  0
  123.5564  121.7917   87.8226 C   0  0  0  0  0  0  0  0  0  0  0  0
  122.4816  122.0486   88.6374 O   0  0  0  0  0  0  0  0  0  0  0  0
  121.1874  121.6725   88.1660 C   0  0  0  0  0  0  0  0  0  0  0  0
  120.3075  122.9249   88.1588 C   0  0  0  0  0  0  0  0  0  0  0  0
  120.5156  123.7831   87.0053 N   0  0  0  0  0  0  0  0  0  0  0  0
  119.8083  123.6119   85.8388 C   0  0  0  0  0  0  0  0  0  0  0  0
  119.1597  124.8664   85.3183 C   0  0  0  0  0  0  0  0  0  0  0  0
  119.7025  122.5365   85.2596 O   0  0  0  0  0  0  0  0  0  0  0  0
  124.7808  121.5424   88.4734 C   0  0  0  0  0  0  0  0  0  0  0  0
  124.7568  121.6034   89.8459 O   0  0  0  0  0  0  0  0  0  0  0  0
  126.0044  121.6283   90.5236 C   0  0  0  0  0  0  0  0  0  0  0  0
  125.9249  121.2682   87.7131 C   0  0  0  0  0  0  0  0  0  0  0  0
  126.0192  122.7847   83.5559 H   0  0  0  0  0  0  0  0  0  0  0  0
  127.6520  123.1657   82.9113 H   0  0  0  0  0  0  0  0  0  0  0  0
  127.0596  121.4699   82.9113 H   0  0  0  0  0  0  0  0  0  0  0  0
  128.7416  122.1320   84.7544 H   0  0  0  0  0  0  0  0  0  0  0  0
  127.3725  123.0756   85.4716 H   0  0  0  0  0  0  0  0  0  0  0  0
  126.8593  120.2156   84.7154 H   0  0  0  0  0  0  0  0  0  0  0  0
  127.8763  120.5523   86.1777 H   0  0  0  0  0  0  0  0  0  0  0  0
  124.5856  121.4525   84.5790 H   0  0  0  0  0  0  0  0  0  0  0  0
  122.5425  121.9415   85.9140 H   0  0  0  0  0  0  0  0  0  0  0  0
  121.2646  121.2640   87.1476 H   0  0  0  0  0  0  0  0  0  0  0  0
  120.7512  120.9013   88.8179 H   0  0  0  0  0  0  0  0  0  0  0  0
  119.2541  122.6084   88.1695 H   0  0  0  0  0  0  0  0  0  0  0  0
  120.5806  123.5125   89.0477 H   0  0  0  0  0  0  0  0  0  0  0  0
  121.2117  124.5401   87.0629 H   0  0  0  0  0  0  0  0  0  0  0  0
  118.8369  125.4906   86.1646 H   0  0  0  0  0  0  0  0  0  0  0  0
  119.8818  125.4253   84.7050 H   0  0  0  0  0  0  0  0  0  0  0  0
  118.2862  124.6003   84.7050 H   0  0  0  0  0  0  0  0  0  0  0  0
  125.8316  121.6248   91.6100 H   0  0  0  0  0  0  0  0  0  0  0  0
  126.5919  120.7417   90.2430 H   0  0  0  0  0  0  0  0  0  0  0  0
  126.5561  122.5376   90.2430 H   0  0  0  0  0  0  0  0  0  0  0  0
  126.8829  121.0829   88.2208 H   0  0  0  0  0  0  0  0  0  0  0  0
  1  2  1  0
  2  3  1  0
  3  4  1  0
  4  5  2  0
  5  6  1  0
  6  7  2  0
  7  8  1  0
  8  9  1  0
  9 10  1  0
 10 11  1  0
 11 12  1  0
 12 13  1  0
 12 14  2  0
  7 15  1  0
 15 16  1  0
 16 17  1  0
 15 18  2  0
 18  4  1  0
  1 19  1  0
  1 20  1  0
  1 21  1  0
  2 22  1  0
  2 23  1  0
  3 24  1  0
  3 25  1  0
  5 26  1  0
  6 27  1  0
  9 28  1  0
  9 29  1  0
 10 30  1  0
 10 31  1  0
 11 32  1  0
 13 33  1  0
 13 34  1  0
 13 35  1  0
 17 36  1  0
 17 37  1  0
 17 38  1  0
 18 39  1  0
M  END
>  <loss>  (11) 
0.33279913663864136

>  <score>  (11) 
8.034862518310547

$$$$
XACAJANRBWYFIE-UHFFFAOYSA-N
     RDKit          3D

 39 39  0  0  0  0  0  0  0  0999 V2000
  126.8051  122.7444   83.4134 C   0  0  0  0  0  0  0  0  0  0  0  0
  127.4945  122.5126   84.7509 C   0  0  0  0  0  0  0  0  0  0  0  0
  127.0768  121.2029   85.4262 C   0  0  0  0  0  0  0  0  0  0  0  0
  125.8338  121.3266   86.2734 C   0  0  0  0  0  0  0  0  0  0  0  0
  124.5737  121.4007   85.6734 C   0  0  0  0  0  0  0  0  0  0  0  0
  123.4186  121.5072   86.4524 C   0  0  0  0  0  0  0  0  0  0  0  0
  123.5051  121.5419   87.8473 C   0  0  0  0  0  0  0  0  0  0  0  0
  122.4318  121.6397   88.6977 O   0  0  0  0  0  0  0  0  0  0  0  0
  121.5097  122.7145   88.5299 C   0  0  0  0  0  0  0  0  0  0  0  0
  120.3636  122.3108   87.5989 C   0  0  0  0  0  0  0  0  0  0  0  0
  119.6713  123.4488   87.0232 N   0  0  0  0  0  0  0  0  0  0  0  0
  119.7014  123.6945   85.6708 C   0  0  0  0  0  0  0  0  0  0  0  0
  118.8925  124.8871   85.2378 C   0  0  0  0  0  0  0  0  0  0  0  0
  120.3452  123.0178   84.8755 O   0  0  0  0  0  0  0  0  0  0  0  0
  124.7707  121.4639   88.4635 C   0  0  0  0  0  0  0  0  0  0  0  0
  124.7736  121.4944   89.8375 O   0  0  0  0  0  0  0  0  0  0  0  0
  126.0211  121.6817   90.4891 C   0  0  0  0  0  0  0  0  0  0  0  0
  125.9226  121.3582   87.6727 C   0  0  0  0  0  0  0  0  0  0  0  0
  125.7755  123.0906   83.5867 H   0  0  0  0  0  0  0  0  0  0  0  0
  127.3571  123.5063   82.8436 H   0  0  0  0  0  0  0  0  0  0  0  0
  126.7846  121.8037   82.8436 H   0  0  0  0  0  0  0  0  0  0  0  0
  128.5815  122.4888   84.5844 H   0  0  0  0  0  0  0  0  0  0  0  0
  127.1965  123.3342   85.4189 H   0  0  0  0  0  0  0  0  0  0  0  0
  126.8904  120.4528   84.6436 H   0  0  0  0  0  0  0  0  0  0  0  0
  127.8969  120.9125   86.0993 H   0  0  0  0  0  0  0  0  0  0  0  0
  124.4904  121.3748   84.5768 H   0  0  0  0  0  0  0  0  0  0  0  0
  122.4343  121.5642   85.9647 H   0  0  0  0  0  0  0  0  0  0  0  0
  121.0963  122.9908   89.5111 H   0  0  0  0  0  0  0  0  0  0  0  0
  122.0416  123.5673   88.0831 H   0  0  0  0  0  0  0  0  0  0  0  0
  120.7750  121.7007   86.7812 H   0  0  0  0  0  0  0  0  0  0  0  0
  119.6324  121.7519   88.2014 H   0  0  0  0  0  0  0  0  0  0  0  0
  119.1468  124.0853   87.6402 H   0  0  0  0  0  0  0  0  0  0  0  0
  118.5278  125.4247   86.1254 H   0  0  0  0  0  0  0  0  0  0  0  0
  119.5224  125.5583   84.6356 H   0  0  0  0  0  0  0  0  0  0  0  0
  118.0359  124.5500   84.6356 H   0  0  0  0  0  0  0  0  0  0  0  0
  125.8727  121.6594   91.5788 H   0  0  0  0  0  0  0  0  0  0  0  0
  126.7120  120.8772   90.1966 H   0  0  0  0  0  0  0  0  0  0  0  0
  126.4453  122.6536   90.1966 H   0  0  0  0  0  0  0  0  0  0  0  0
  126.9091  121.2991   88.1556 H   0  0  0  0  0  0  0  0  0  0  0  0
  1  2  1  0
  2  3  1  0
  3  4  1  0
  4  5  2  0
  5  6  1  0
  6  7  2  0
  7  8  1  0
  8  9  1  0
  9 10  1  0
 10 11  1  0
 11 12  1  0
 12 13  1  0
 12 14  2  0
  7 15  1  0
 15 16  1  0
 16 17  1  0
 15 18  2  0
 18  4  1  0
  1 19  1  0
  1 20  1  0
  1 21  1  0
  2 22  1  0
  2 23  1  0
  3 24  1  0
  3 25  1  0
  5 26  1  0
  6 27  1  0
  9 28  1  0
  9 29  1  0
 10 30  1  0
 10 31  1  0
 11 32  1  0
 13 33  1  0
 13 34  1  0
 13 35  1  0
 17 36  1  0
 17 37  1  0
 17 38  1  0
 18 39  1  0
M  END
>  <loss>  (12) 
0.3260304927825928

>  <score>  (12) 
7.996115684509277

$$$$
XACAJANRBWYFIE-UHFFFAOYSA-N
     RDKit          3D

 39 39  0  0  0  0  0  0  0  0999 V2000
  126.9323  122.6882   83.3994 C   0  0  0  0  0  0  0  0  0  0  0  0
  127.4960  122.5018   84.8013 C   0  0  0  0  0  0  0  0  0  0  0  0
  127.0768  121.1791   85.4494 C   0  0  0  0  0  0  0  0  0  0  0  0
  125.8410  121.2893   86.3089 C   0  0  0  0  0  0  0  0  0  0  0  0
  124.5750  121.3611   85.7211 C   0  0  0  0  0  0  0  0  0  0  0  0
  123.4267  121.4552   86.5116 C   0  0  0  0  0  0  0  0  0  0  0  0
  123.5259  121.4796   87.9058 C   0  0  0  0  0  0  0  0  0  0  0  0
  122.4599  121.5649   88.7668 O   0  0  0  0  0  0  0  0  0  0  0  0
  121.5625  122.6672   88.6524 C   0  0  0  0  0  0  0  0  0  0  0  0
  120.4723  122.3790   87.6172 C   0  0  0  0  0  0  0  0  0  0  0  0
  119.9010  123.5832   87.0432 N   0  0  0  0  0  0  0  0  0  0  0  0
  119.6777  123.6943   85.6912 C   0  0  0  0  0  0  0  0  0  0  0  0
  118.6341  124.7110   85.3152 C   0  0  0  0  0  0  0  0  0  0  0  0
  120.2852  123.0396   84.8502 O   0  0  0  0  0  0  0  0  0  0  0  0
  124.7975  121.4039   88.5097 C   0  0  0  0  0  0  0  0  0  0  0  0
  124.8129  121.4237   89.8839 O   0  0  0  0  0  0  0  0  0  0  0  0
  126.0606  121.6433   90.5250 C   0  0  0  0  0  0  0  0  0  0  0  0
  125.9426  121.3106   87.7075 C   0  0  0  0  0  0  0  0  0  0  0  0
  125.8899  123.0329   83.4662 H   0  0  0  0  0  0  0  0  0  0  0  0
  127.5319  123.4359   82.8595 H   0  0  0  0  0  0  0  0  0  0  0  0
  126.9680  121.7305   82.8595 H   0  0  0  0  0  0  0  0  0  0  0  0
  128.5941  122.5300   84.7431 H   0  0  0  0  0  0  0  0  0  0  0  0
  127.0942  123.3135   85.4256 H   0  0  0  0  0  0  0  0  0  0  0  0
  126.8805  120.4481   84.6512 H   0  0  0  0  0  0  0  0  0  0  0  0
  127.9006  120.8691   86.1091 H   0  0  0  0  0  0  0  0  0  0  0  0
  124.4817  121.3432   84.6252 H   0  0  0  0  0  0  0  0  0  0  0  0
  122.4376  121.5105   86.0334 H   0  0  0  0  0  0  0  0  0  0  0  0
  121.0918  122.8513   89.6294 H   0  0  0  0  0  0  0  0  0  0  0  0
  122.1311  123.5510   88.3272 H   0  0  0  0  0  0  0  0  0  0  0  0
  120.9094  121.7778   86.8063 H   0  0  0  0  0  0  0  0  0  0  0  0
  119.6615  121.8449   88.1342 H   0  0  0  0  0  0  0  0  0  0  0  0
  119.6578  124.3705   87.6612 H   0  0  0  0  0  0  0  0  0  0  0  0
  118.1942  125.1396   86.2277 H   0  0  0  0  0  0  0  0  0  0  0  0
  119.0993  125.5116   84.7215 H   0  0  0  0  0  0  0  0  0  0  0  0
  117.8459  124.2250   84.7215 H   0  0  0  0  0  0  0  0  0  0  0  0
  125.9216  121.6189   91.6159 H   0  0  0  0  0  0  0  0  0  0  0  0
  126.7691  120.8561   90.2279 H   0  0  0  0  0  0  0  0  0  0  0  0
  126.4577  122.6252   90.2279 H   0  0  0  0  0  0  0  0  0  0  0  0
  126.9339  121.2533   88.1809 H   0  0  0  0  0  0  0  0  0  0  0  0
  1  2  1  0
  2  3  1  0
  3  4  1  0
  4  5  2  0
  5  6  1  0
  6  7  2  0
  7  8  1  0
  8  9  1  0
  9 10  1  0
 10 11  1  0
 11 12  1  0
 12 13  1  0
 12 14  2  0
  7 15  1  0
 15 16  1  0
 16 17  1  0
 15 18  2  0
 18  4  1  0
  1 19  1  0
  1 20  1  0
  1 21  1  0
  2 22  1  0
  2 23  1  0
  3 24  1  0
  3 25  1  0
  5 26  1  0
  6 27  1  0
  9 28  1  0
  9 29  1  0
 10 30  1  0
 10 31  1  0
 11 32  1  0
 13 33  1  0
 13 34  1  0
 13 35  1  0
 17 36  1  0
 17 37  1  0
 17 38  1  0
 18 39  1  0
M  END
>  <loss>  (13) 
0.3257679343223572

>  <score>  (13) 
7.956990718841553

$$$$
XACAJANRBWYFIE-UHFFFAOYSA-N
     RDKit          3D

 39 39  0  0  0  0  0  0  0  0999 V2000
  126.7265  120.9992   83.2296 C   0  0  0  0  0  0  0  0  0  0  0  0
  126.9723  122.2106   84.1184 C   0  0  0  0  0  0  0  0  0  0  0  0
  127.2222  121.8431   85.5840 C   0  0  0  0  0  0  0  0  0  0  0  0
  125.9616  121.7435   86.4081 C   0  0  0  0  0  0  0  0  0  0  0  0
  124.7094  121.7424   85.7874 C   0  0  0  0  0  0  0  0  0  0  0  0
  123.5391  121.6425   86.5442 C   0  0  0  0  0  0  0  0  0  0  0  0
  123.6020  121.5422   87.9371 C   0  0  0  0  0  0  0  0  0  0  0  0
  122.5129  121.4351   88.7661 O   0  0  0  0  0  0  0  0  0  0  0  0
  121.5158  122.4541   88.7363 C   0  0  0  0  0  0  0  0  0  0  0  0
  120.5064  122.1982   87.6143 C   0  0  0  0  0  0  0  0  0  0  0  0
  119.8460  123.4069   87.1573 N   0  0  0  0  0  0  0  0  0  0  0  0
  119.9022  123.7981   85.8405 C   0  0  0  0  0  0  0  0  0  0  0  0
  118.6009  124.3150   85.2897 C   0  0  0  0  0  0  0  0  0  0  0  0
  120.9257  123.7529   85.1656 O   0  0  0  0  0  0  0  0  0  0  0  0
  124.8599  121.5383   88.5736 C   0  0  0  0  0  0  0  0  0  0  0  0
  124.8406  121.4269   89.9434 O   0  0  0  0  0  0  0  0  0  0  0  0
  126.0713  121.5835   90.6339 C   0  0  0  0  0  0  0  0  0  0  0  0
  126.0272  121.6399   87.8052 C   0  0  0  0  0  0  0  0  0  0  0  0
  126.5469  120.1141   83.8576 H   0  0  0  0  0  0  0  0  0  0  0  0
  125.8473  121.1827   82.5946 H   0  0  0  0  0  0  0  0  0  0  0  0
  127.6077  120.8255   82.5946 H   0  0  0  0  0  0  0  0  0  0  0  0
  127.8523  122.7501   83.7383 H   0  0  0  0  0  0  0  0  0  0  0  0
  126.0630  122.8288   84.0870 H   0  0  0  0  0  0  0  0  0  0  0  0
  127.7354  120.8706   85.6155 H   0  0  0  0  0  0  0  0  0  0  0  0
  127.8278  122.6516   86.0193 H   0  0  0  0  0  0  0  0  0  0  0  0
  124.6445  121.8210   84.6921 H   0  0  0  0  0  0  0  0  0  0  0  0
  122.5612  121.6427   86.0404 H   0  0  0  0  0  0  0  0  0  0  0  0
  120.9866  122.4684   89.7005 H   0  0  0  0  0  0  0  0  0  0  0  0
  122.0071  123.4211   88.5532 H   0  0  0  0  0  0  0  0  0  0  0  0
  121.0361  121.7453   86.7632 H   0  0  0  0  0  0  0  0  0  0  0  0
  119.7296  121.5318   88.0172 H   0  0  0  0  0  0  0  0  0  0  0  0
  119.3247  123.9834   87.8332 H   0  0  0  0  0  0  0  0  0  0  0  0
  117.9310  124.5811   86.1205 H   0  0  0  0  0  0  0  0  0  0  0  0
  118.7918  125.2056   84.6729 H   0  0  0  0  0  0  0  0  0  0  0  0
  118.1287  123.5362   84.6729 H   0  0  0  0  0  0  0  0  0  0  0  0
  125.8888  121.5603   91.7184 H   0  0  0  0  0  0  0  0  0  0  0  0
  126.7527  120.7649   90.3591 H   0  0  0  0  0  0  0  0  0  0  0  0
  126.5259  122.5468   90.3591 H   0  0  0  0  0  0  0  0  0  0  0  0
  127.0076  121.6384   88.3041 H   0  0  0  0  0  0  0  0  0  0  0  0
  1  2  1  0
  2  3  1  0
  3  4  1  0
  4  5  2  0
  5  6  1  0
  6  7  2  0
  7  8  1  0
  8  9  1  0
  9 10  1  0
 10 11  1  0
 11 12  1  0
 12 13  1  0
 12 14  2  0
  7 15  1  0
 15 16  1  0
 16 17  1  0
 15 18  2  0
 18  4  1  0
  1 19  1  0
  1 20  1  0
  1 21  1  0
  2 22  1  0
  2 23  1  0
  3 24  1  0
  3 25  1  0
  5 26  1  0
  6 27  1  0
  9 28  1  0
  9 29  1  0
 10 30  1  0
 10 31  1  0
 11 32  1  0
 13 33  1  0
 13 34  1  0
 13 35  1  0
 17 36  1  0
 17 37  1  0
 17 38  1  0
 18 39  1  0
M  END
>  <loss>  (14) 
0.32647761702537537

>  <score>  (14) 
7.951046466827393

$$$$
XACAJANRBWYFIE-UHFFFAOYSA-N
     RDKit          3D

 39 39  0  0  0  0  0  0  0  0999 V2000
  127.0890  122.7053   83.5962 C   0  0  0  0  0  0  0  0  0  0  0  0
  127.6882  122.1784   84.8927 C   0  0  0  0  0  0  0  0  0  0  0  0
  126.9832  120.9237   85.4165 C   0  0  0  0  0  0  0  0  0  0  0  0
  125.7854  121.2169   86.2886 C   0  0  0  0  0  0  0  0  0  0  0  0
  124.5417  121.5007   85.7104 C   0  0  0  0  0  0  0  0  0  0  0  0
  123.4364  121.7714   86.5153 C   0  0  0  0  0  0  0  0  0  0  0  0
  123.5664  121.7459   87.9043 C   0  0  0  0  0  0  0  0  0  0  0  0
  122.4887  122.0542   88.6953 O   0  0  0  0  0  0  0  0  0  0  0  0
  121.2290  121.7402   88.0740 C   0  0  0  0  0  0  0  0  0  0  0  0
  120.2772  122.9428   88.0731 C   0  0  0  0  0  0  0  0  0  0  0  0
  120.4837  123.7958   86.9160 N   0  0  0  0  0  0  0  0  0  0  0  0
  119.7710  123.6012   85.7569 C   0  0  0  0  0  0  0  0  0  0  0  0
  118.9105  124.7719   85.3662 C   0  0  0  0  0  0  0  0  0  0  0  0
  119.8308  122.5774   85.0838 O   0  0  0  0  0  0  0  0  0  0  0  0
  124.8095  121.4989   88.5064 C   0  0  0  0  0  0  0  0  0  0  0  0
  124.8369  121.5145   89.8794 O   0  0  0  0  0  0  0  0  0  0  0  0
  126.1208  121.5785   90.4891 C   0  0  0  0  0  0  0  0  0  0  0  0
  125.9099  121.2191   87.6895 C   0  0  0  0  0  0  0  0  0  0  0  0
  126.2814  123.4154   83.8275 H   0  0  0  0  0  0  0  0  0  0  0  0
  127.8694  123.2151   83.0121 H   0  0  0  0  0  0  0  0  0  0  0  0
  126.6832  121.8661   83.0121 H   0  0  0  0  0  0  0  0  0  0  0  0
  128.7466  121.9367   84.7159 H   0  0  0  0  0  0  0  0  0  0  0  0
  127.5654  122.9640   85.6528 H   0  0  0  0  0  0  0  0  0  0  0  0
  126.6471  120.3292   84.5542 H   0  0  0  0  0  0  0  0  0  0  0  0
  127.7104  120.3849   86.0416 H   0  0  0  0  0  0  0  0  0  0  0  0
  124.4367  121.5099   84.6155 H   0  0  0  0  0  0  0  0  0  0  0  0
  122.4641  122.0047   86.0567 H   0  0  0  0  0  0  0  0  0  0  0  0
  121.4124  121.4308   87.0344 H   0  0  0  0  0  0  0  0  0  0  0  0
  120.7563  120.9313   88.6505 H   0  0  0  0  0  0  0  0  0  0  0  0
  119.2403  122.5758   88.0638 H   0  0  0  0  0  0  0  0  0  0  0  0
  120.4791  123.5380   88.9758 H   0  0  0  0  0  0  0  0  0  0  0  0
  121.1746  124.5582   86.9647 H   0  0  0  0  0  0  0  0  0  0  0  0
  118.5413  125.2741   86.2726 H   0  0  0  0  0  0  0  0  0  0  0  0
  119.5042  125.4806   84.7703 H   0  0  0  0  0  0  0  0  0  0  0  0
  118.0568  124.4167   84.7703 H   0  0  0  0  0  0  0  0  0  0  0  0
  126.0078  121.5729   91.5833 H   0  0  0  0  0  0  0  0  0  0  0  0
  126.7184  120.7091   90.1777 H   0  0  0  0  0  0  0  0  0  0  0  0
  126.6289  122.5032   90.1777 H   0  0  0  0  0  0  0  0  0  0  0  0
  126.8848  120.9981   88.1485 H   0  0  0  0  0  0  0  0  0  0  0  0
  1  2  1  0
  2  3  1  0
  3  4  1  0
  4  5  2  0
  5  6  1  0
  6  7  2  0
  7  8  1  0
  8  9  1  0
  9 10  1  0
 10 11  1  0
 11 12  1  0
 12 13  1  0
 12 14  2  0
  7 15  1  0
 15 16  1  0
 16 17  1  0
 15 18  2  0
 18  4  1  0
  1 19  1  0
  1 20  1  0
  1 21  1  0
  2 22  1  0
  2 23  1  0
  3 24  1  0
  3 25  1  0
  5 26  1  0
  6 27  1  0
  9 28  1  0
  9 29  1  0
 10 30  1  0
 10 31  1  0
 11 32  1  0
 13 33  1  0
 13 34  1  0
 13 35  1  0
 17 36  1  0
 17 37  1  0
 17 38  1  0
 18 39  1  0
M  END
>  <loss>  (15) 
0.3295399844646454

>  <score>  (15) 
7.898563861846924

$$$$
XACAJANRBWYFIE-UHFFFAOYSA-N
     RDKit          3D

 39 39  0  0  0  0  0  0  0  0999 V2000
  127.0258  122.7646   83.5923 C   0  0  0  0  0  0  0  0  0  0  0  0
  127.7104  122.2777   84.8596 C   0  0  0  0  0  0  0  0  0  0  0  0
  127.0837  120.9793   85.3690 C   0  0  0  0  0  0  0  0  0  0  0  0
  125.8551  121.2439   86.2040 C   0  0  0  0  0  0  0  0  0  0  0  0
  124.6241  121.4954   85.5919 C   0  0  0  0  0  0  0  0  0  0  0  0
  123.4887  121.7579   86.3624 C   0  0  0  0  0  0  0  0  0  0  0  0
  123.5696  121.7789   87.7581 C   0  0  0  0  0  0  0  0  0  0  0  0
  122.5068  122.0204   88.5932 O   0  0  0  0  0  0  0  0  0  0  0  0
  121.1986  121.7242   88.1039 C   0  0  0  0  0  0  0  0  0  0  0  0
  120.3481  122.9895   88.2404 C   0  0  0  0  0  0  0  0  0  0  0  0
  120.3923  123.8562   87.0756 N   0  0  0  0  0  0  0  0  0  0  0  0
  119.6811  123.5713   85.9339 C   0  0  0  0  0  0  0  0  0  0  0  0
  119.1992  124.7851   85.1856 C   0  0  0  0  0  0  0  0  0  0  0  0
  119.4480  122.4322   85.5448 O   0  0  0  0  0  0  0  0  0  0  0  0
  124.8052  121.5263   88.3861 C   0  0  0  0  0  0  0  0  0  0  0  0
  124.8028  121.5692   89.7595 O   0  0  0  0  0  0  0  0  0  0  0  0
  126.0605  121.5621   90.4186 C   0  0  0  0  0  0  0  0  0  0  0  0
  125.9382  121.2670   87.6043 C   0  0  0  0  0  0  0  0  0  0  0  0
  126.1563  123.3830   83.8598 H   0  0  0  0  0  0  0  0  0  0  0  0
  127.7335  123.3634   83.0002 H   0  0  0  0  0  0  0  0  0  0  0  0
  126.6923  121.8996   83.0002 H   0  0  0  0  0  0  0  0  0  0  0  0
  128.7750  122.1015   84.6461 H   0  0  0  0  0  0  0  0  0  0  0  0
  127.5900  123.0478   85.6357 H   0  0  0  0  0  0  0  0  0  0  0  0
  126.8018  120.3570   84.5068 H   0  0  0  0  0  0  0  0  0  0  0  0
  127.8237  120.4654   86.0001 H   0  0  0  0  0  0  0  0  0  0  0  0
  124.5485  121.4866   84.4945 H   0  0  0  0  0  0  0  0  0  0  0  0
  122.5250  121.9493   85.8679 H   0  0  0  0  0  0  0  0  0  0  0  0
  121.2539  121.4231   87.0474 H   0  0  0  0  0  0  0  0  0  0  0  0
  120.7525  120.8986   88.6779 H   0  0  0  0  0  0  0  0  0  0  0  0
  119.3036  122.6883   88.4087 H   0  0  0  0  0  0  0  0  0  0  0  0
  120.7625  123.5638   89.0821 H   0  0  0  0  0  0  0  0  0  0  0  0
  120.9721  124.7070   87.1057 H   0  0  0  0  0  0  0  0  0  0  0  0
  118.8916  125.5600   85.9032 H   0  0  0  0  0  0  0  0  0  0  0  0
  120.0117  125.1726   84.5534 H   0  0  0  0  0  0  0  0  0  0  0  0
  118.3422  124.5097   84.5534 H   0  0  0  0  0  0  0  0  0  0  0  0
  125.9039  121.5630   91.5074 H   0  0  0  0  0  0  0  0  0  0  0  0
  126.6209  120.6608   90.1295 H   0  0  0  0  0  0  0  0  0  0  0  0
  126.6311  122.4570   90.1295 H   0  0  0  0  0  0  0  0  0  0  0  0
  126.9049  121.0792   88.0942 H   0  0  0  0  0  0  0  0  0  0  0  0
  1  2  1  0
  2  3  1  0
  3  4  1  0
  4  5  2  0
  5  6  1  0
  6  7  2  0
  7  8  1  0
  8  9  1  0
  9 10  1  0
 10 11  1  0
 11 12  1  0
 12 13  1  0
 12 14  2  0
  7 15  1  0
 15 16  1  0
 16 17  1  0
 15 18  2  0
 18  4  1  0
  1 19  1  0
  1 20  1  0
  1 21  1  0
  2 22  1  0
  2 23  1  0
  3 24  1  0
  3 25  1  0
  5 26  1  0
  6 27  1  0
  9 28  1  0
  9 29  1  0
 10 30  1  0
 10 31  1  0
 11 32  1  0
 13 33  1  0
 13 34  1  0
 13 35  1  0
 17 36  1  0
 17 37  1  0
 17 38  1  0
 18 39  1  0
M  END
>  <loss>  (16) 
0.3406292498111725

>  <score>  (16) 
7.930887699127197

$$$$
XACAJANRBWYFIE-UHFFFAOYSA-N
     RDKit          3D

 39 39  0  0  0  0  0  0  0  0999 V2000
  126.8715  122.6156   83.4270 C   0  0  0  0  0  0  0  0  0  0  0  0
  127.5970  122.4035   84.7463 C   0  0  0  0  0  0  0  0  0  0  0  0
  127.1324  121.1220   85.4391 C   0  0  0  0  0  0  0  0  0  0  0  0
  125.8765  121.3480   86.2443 C   0  0  0  0  0  0  0  0  0  0  0  0
  124.6550  121.5712   85.6027 C   0  0  0  0  0  0  0  0  0  0  0  0
  123.4940  121.7980   86.3459 C   0  0  0  0  0  0  0  0  0  0  0  0
  123.5390  121.8111   87.7433 C   0  0  0  0  0  0  0  0  0  0  0  0
  122.4495  122.0184   88.5526 O   0  0  0  0  0  0  0  0  0  0  0  0
  121.1637  121.6778   88.0336 C   0  0  0  0  0  0  0  0  0  0  0  0
  120.2786  122.9239   88.1157 C   0  0  0  0  0  0  0  0  0  0  0  0
  120.3971  123.8059   86.9676 N   0  0  0  0  0  0  0  0  0  0  0  0
  119.7235  123.5613   85.7943 C   0  0  0  0  0  0  0  0  0  0  0  0
  118.9856  124.7522   85.2441 C   0  0  0  0  0  0  0  0  0  0  0  0
  119.7121  122.4720   85.2315 O   0  0  0  0  0  0  0  0  0  0  0  0
  124.7647  121.5868   88.4008 C   0  0  0  0  0  0  0  0  0  0  0  0
  124.7265  121.6197   89.7740 O   0  0  0  0  0  0  0  0  0  0  0  0
  125.9667  121.6607   90.4643 C   0  0  0  0  0  0  0  0  0  0  0  0
  125.9236  121.3632   87.6463 C   0  0  0  0  0  0  0  0  0  0  0  0
  125.8329  122.9193   83.6244 H   0  0  0  0  0  0  0  0  0  0  0  0
  127.3805  123.4026   82.8511 H   0  0  0  0  0  0  0  0  0  0  0  0
  126.8764  121.6785   82.8511 H   0  0  0  0  0  0  0  0  0  0  0  0
  128.6777  122.3344   84.5533 H   0  0  0  0  0  0  0  0  0  0  0  0
  127.3717  123.2546   85.4058 H   0  0  0  0  0  0  0  0  0  0  0  0
  126.9334  120.3557   84.6754 H   0  0  0  0  0  0  0  0  0  0  0  0
  127.9269  120.7958   86.1264 H   0  0  0  0  0  0  0  0  0  0  0  0
  124.6075  121.5683   84.5038 H   0  0  0  0  0  0  0  0  0  0  0  0
  122.5383  121.9673   85.8283 H   0  0  0  0  0  0  0  0  0  0  0  0
  121.2571  121.3538   86.9865 H   0  0  0  0  0  0  0  0  0  0  0  0
  120.7217  120.8546   88.6142 H   0  0  0  0  0  0  0  0  0  0  0  0
  119.2306  122.5997   88.1968 H   0  0  0  0  0  0  0  0  0  0  0  0
  120.6125  123.4958   88.9939 H   0  0  0  0  0  0  0  0  0  0  0  0
  121.0020  124.6369   87.0344 H   0  0  0  0  0  0  0  0  0  0  0  0
  118.6062  125.3646   86.0754 H   0  0  0  0  0  0  0  0  0  0  0  0
  119.6692  125.3542   84.6274 H   0  0  0  0  0  0  0  0  0  0  0  0
  118.1422  124.4081   84.6274 H   0  0  0  0  0  0  0  0  0  0  0  0
  125.7831  121.6546   91.5488 H   0  0  0  0  0  0  0  0  0  0  0  0
  126.5686  120.7819   90.1894 H   0  0  0  0  0  0  0  0  0  0  0  0
  126.5093  122.5772   90.1894 H   0  0  0  0  0  0  0  0  0  0  0  0
  126.8823  121.1975   88.1595 H   0  0  0  0  0  0  0  0  0  0  0  0
  1  2  1  0
  2  3  1  0
  3  4  1  0
  4  5  2  0
  5  6  1  0
  6  7  2  0
  7  8  1  0
  8  9  1  0
  9 10  1  0
 10 11  1  0
 11 12  1  0
 12 13  1  0
 12 14  2  0
  7 15  1  0
 15 16  1  0
 16 17  1  0
 15 18  2  0
 18  4  1  0
  1 19  1  0
  1 20  1  0
  1 21  1  0
  2 22  1  0
  2 23  1  0
  3 24  1  0
  3 25  1  0
  5 26  1  0
  6 27  1  0
  9 28  1  0
  9 29  1  0
 10 30  1  0
 10 31  1  0
 11 32  1  0
 13 33  1  0
 13 34  1  0
 13 35  1  0
 17 36  1  0
 17 37  1  0
 17 38  1  0
 18 39  1  0
M  END
>  <loss>  (17) 
0.3315213620662689

>  <score>  (17) 
7.8532538414001465

$$$$
XACAJANRBWYFIE-UHFFFAOYSA-N
     RDKit          3D

 39 39  0  0  0  0  0  0  0  0999 V2000
  127.0524  122.6929   83.4498 C   0  0  0  0  0  0  0  0  0  0  0  0
  127.6509  122.2996   84.7932 C   0  0  0  0  0  0  0  0  0  0  0  0
  127.0152  121.0410   85.3911 C   0  0  0  0  0  0  0  0  0  0  0  0
  125.8042  121.3190   86.2498 C   0  0  0  0  0  0  0  0  0  0  0  0
  124.5666  121.6008   85.6578 C   0  0  0  0  0  0  0  0  0  0  0  0
  123.4491  121.8575   86.4504 C   0  0  0  0  0  0  0  0  0  0  0  0
  123.5608  121.8197   87.8406 C   0  0  0  0  0  0  0  0  0  0  0  0
  122.4708  122.1143   88.6200 O   0  0  0  0  0  0  0  0  0  0  0  0
  121.2267  121.7100   88.0199 C   0  0  0  0  0  0  0  0  0  0  0  0
  120.1866  122.8368   88.0476 C   0  0  0  0  0  0  0  0  0  0  0  0
  120.3749  123.7744   86.9547 N   0  0  0  0  0  0  0  0  0  0  0  0
  119.7077  123.6160   85.7634 C   0  0  0  0  0  0  0  0  0  0  0  0
  118.9026  124.8182   85.3509 C   0  0  0  0  0  0  0  0  0  0  0  0
  119.7643  122.5986   85.0805 O   0  0  0  0  0  0  0  0  0  0  0  0
  124.7972  121.5744   88.4570 C   0  0  0  0  0  0  0  0  0  0  0  0
  124.8064  121.5774   89.8303 O   0  0  0  0  0  0  0  0  0  0  0  0
  126.0820  121.6355   90.4576 C   0  0  0  0  0  0  0  0  0  0  0  0
  125.9100  121.3088   87.6523 C   0  0  0  0  0  0  0  0  0  0  0  0
  126.1434  123.2902   83.6142 H   0  0  0  0  0  0  0  0  0  0  0  0
  127.7838  123.2869   82.8823 H   0  0  0  0  0  0  0  0  0  0  0  0
  126.7974  121.7857   82.8823 H   0  0  0  0  0  0  0  0  0  0  0  0
  128.7269  122.1167   84.6565 H   0  0  0  0  0  0  0  0  0  0  0  0
  127.4582  123.1270   85.4920 H   0  0  0  0  0  0  0  0  0  0  0  0
  126.7109  120.3805   84.5658 H   0  0  0  0  0  0  0  0  0  0  0  0
  127.7711  120.5790   86.0432 H   0  0  0  0  0  0  0  0  0  0  0  0
  124.4761  121.6197   84.5617 H   0  0  0  0  0  0  0  0  0  0  0  0
  122.4816  122.0893   85.9810 H   0  0  0  0  0  0  0  0  0  0  0  0
  121.4126  121.4230   86.9744 H   0  0  0  0  0  0  0  0  0  0  0  0
  120.8281  120.8633   88.5982 H   0  0  0  0  0  0  0  0  0  0  0  0
  119.1821  122.3956   87.9686 H   0  0  0  0  0  0  0  0  0  0  0  0
  120.3049  123.3868   88.9928 H   0  0  0  0  0  0  0  0  0  0  0  0
  121.0181  124.5699   87.0739 H   0  0  0  0  0  0  0  0  0  0  0  0
  118.5482  125.3475   86.2477 H   0  0  0  0  0  0  0  0  0  0  0  0
  119.5318  125.4928   84.7516 H   0  0  0  0  0  0  0  0  0  0  0  0
  118.0392  124.4933   84.7516 H   0  0  0  0  0  0  0  0  0  0  0  0
  125.9539  121.6296   91.5501 H   0  0  0  0  0  0  0  0  0  0  0  0
  126.6800  120.7636   90.1539 H   0  0  0  0  0  0  0  0  0  0  0  0
  126.5983  122.5580   90.1539 H   0  0  0  0  0  0  0  0  0  0  0  0
  126.8801  121.0892   88.1222 H   0  0  0  0  0  0  0  0  0  0  0  0
  1  2  1  0
  2  3  1  0
  3  4  1  0
  4  5  2  0
  5  6  1  0
  6  7  2  0
  7  8  1  0
  8  9  1  0
  9 10  1  0
 10 11  1  0
 11 12  1  0
 12 13  1  0
 12 14  2  0
  7 15  1  0
 15 16  1  0
 16 17  1  0
 15 18  2  0
 18  4  1  0
  1 19  1  0
  1 20  1  0
  1 21  1  0
  2 22  1  0
  2 23  1  0
  3 24  1  0
  3 25  1  0
  5 26  1  0
  6 27  1  0
  9 28  1  0
  9 29  1  0
 10 30  1  0
 10 31  1  0
 11 32  1  0
 13 33  1  0
 13 34  1  0
 13 35  1  0
 17 36  1  0
 17 37  1  0
 17 38  1  0
 18 39  1  0
M  END
>  <loss>  (18) 
0.33090150356292725

>  <score>  (18) 
7.847861289978027

$$$$
XACAJANRBWYFIE-UHFFFAOYSA-N
     RDKit          3D

 39 39  0  0  0  0  0  0  0  0999 V2000
  127.0504  122.6082   83.4013 C   0  0  0  0  0  0  0  0  0  0  0  0
  127.6148  122.2460   84.7680 C   0  0  0  0  0  0  0  0  0  0  0  0
  126.9804  120.9877   85.3680 C   0  0  0  0  0  0  0  0  0  0  0  0
  125.7860  121.2682   86.2489 C   0  0  0  0  0  0  0  0  0  0  0  0
  124.5377  121.5498   85.6798 C   0  0  0  0  0  0  0  0  0  0  0  0
  123.4355  121.8088   86.4929 C   0  0  0  0  0  0  0  0  0  0  0  0
  123.5734  121.7734   87.8808 C   0  0  0  0  0  0  0  0  0  0  0  0
  122.4986  122.0702   88.6801 O   0  0  0  0  0  0  0  0  0  0  0  0
  121.2406  121.6950   88.0902 C   0  0  0  0  0  0  0  0  0  0  0  0
  120.2440  122.8607   88.0807 C   0  0  0  0  0  0  0  0  0  0  0  0
  120.4381  123.7296   86.9334 N   0  0  0  0  0  0  0  0  0  0  0  0
  119.6740  123.5865   85.7998 C   0  0  0  0  0  0  0  0  0  0  0  0
  118.6982  124.7096   85.5763 C   0  0  0  0  0  0  0  0  0  0  0  0
  119.7760  122.6419   85.0238 O   0  0  0  0  0  0  0  0  0  0  0  0
  124.8211  121.5283   88.4741 C   0  0  0  0  0  0  0  0  0  0  0  0
  124.8562  121.5337   89.8470 O   0  0  0  0  0  0  0  0  0  0  0  0
  126.1428  121.6051   90.4501 C   0  0  0  0  0  0  0  0  0  0  0  0
  125.9183  121.2604   87.6491 C   0  0  0  0  0  0  0  0  0  0  0  0
  126.1309  123.1983   83.5291 H   0  0  0  0  0  0  0  0  0  0  0  0
  127.7913  123.1999   82.8437 H   0  0  0  0  0  0  0  0  0  0  0  0
  126.8211  121.6882   82.8437 H   0  0  0  0  0  0  0  0  0  0  0  0
  128.6970  122.0773   84.6658 H   0  0  0  0  0  0  0  0  0  0  0  0
  127.3894  123.0816   85.4469 H   0  0  0  0  0  0  0  0  0  0  0  0
  126.6576  120.3351   84.5434 H   0  0  0  0  0  0  0  0  0  0  0  0
  127.7439  120.5161   86.0040 H   0  0  0  0  0  0  0  0  0  0  0  0
  124.4265  121.5668   84.5856 H   0  0  0  0  0  0  0  0  0  0  0  0
  122.4596  122.0404   86.0414 H   0  0  0  0  0  0  0  0  0  0  0  0
  121.4165  121.3688   87.0545 H   0  0  0  0  0  0  0  0  0  0  0  0
  120.8096  120.8824   88.6935 H   0  0  0  0  0  0  0  0  0  0  0  0
  119.2221  122.4548   88.0506 H   0  0  0  0  0  0  0  0  0  0  0  0
  120.4074  123.4564   88.9909 H   0  0  0  0  0  0  0  0  0  0  0  0
  121.1592  124.4642   86.9696 H   0  0  0  0  0  0  0  0  0  0  0  0
  118.3593  125.0996   86.5474 H   0  0  0  0  0  0  0  0  0  0  0  0
  119.1888  125.5143   85.0091 H   0  0  0  0  0  0  0  0  0  0  0  0
  117.8329  124.3362   85.0091 H   0  0  0  0  0  0  0  0  0  0  0  0
  126.0355  121.5992   91.5448 H   0  0  0  0  0  0  0  0  0  0  0  0
  126.7436  120.7389   90.1358 H   0  0  0  0  0  0  0  0  0  0  0  0
  126.6441  122.5325   90.1358 H   0  0  0  0  0  0  0  0  0  0  0  0
  126.8969  121.0410   88.1010 H   0  0  0  0  0  0  0  0  0  0  0  0
  1  2  1  0
  2  3  1  0
  3  4  1  0
  4  5  2  0
  5  6  1  0
  6  7  2  0
  7  8  1  0
  8  9  1  0
  9 10  1  0
 10 11  1  0
 11 12  1  0
 12 13  1  0
 12 14  2  0
  7 15  1  0
 15 16  1  0
 16 17  1  0
 15 18  2  0
 18  4  1  0
  1 19  1  0
  1 20  1  0
  1 21  1  0
  2 22  1  0
  2 23  1  0
  3 24  1  0
  3 25  1  0
  5 26  1  0
  6 27  1  0
  9 28  1  0
  9 29  1  0
 10 30  1  0
 10 31  1  0
 11 32  1  0
 13 33  1  0
 13 34  1  0
 13 35  1  0
 17 36  1  0
 17 37  1  0
 17 38  1  0
 18 39  1  0
M  END
>  <loss>  (19) 
0.33245959877967834

>  <score>  (19) 
7.84130859375

$$$$
XACAJANRBWYFIE-UHFFFAOYSA-N
     RDKit          3D

 39 39  0  0  0  0  0  0  0  0999 V2000
  126.8776  122.9392   83.7273 C   0  0  0  0  0  0  0  0  0  0  0  0
  127.6359  122.2829   84.8727 C   0  0  0  0  0  0  0  0  0  0  0  0
  126.9679  121.0024   85.3824 C   0  0  0  0  0  0  0  0  0  0  0  0
  125.7582  121.2507   86.2521 C   0  0  0  0  0  0  0  0  0  0  0  0
  124.5041  121.4780   85.6716 C   0  0  0  0  0  0  0  0  0  0  0  0
  123.3878  121.7073   86.4742 C   0  0  0  0  0  0  0  0  0  0  0  0
  123.5179  121.6965   87.8633 C   0  0  0  0  0  0  0  0  0  0  0  0
  122.4276  121.9644   88.6519 O   0  0  0  0  0  0  0  0  0  0  0  0
  121.1775  121.7572   87.9694 C   0  0  0  0  0  0  0  0  0  0  0  0
  120.1899  122.9021   88.2267 C   0  0  0  0  0  0  0  0  0  0  0  0
  120.2863  123.9382   87.2136 N   0  0  0  0  0  0  0  0  0  0  0  0
  119.8995  123.6982   85.9166 C   0  0  0  0  0  0  0  0  0  0  0  0
  118.4576  124.0263   85.6395 C   0  0  0  0  0  0  0  0  0  0  0  0
  120.6530  123.2686   85.0491 O   0  0  0  0  0  0  0  0  0  0  0  0
  124.7699  121.5061   88.4676 C   0  0  0  0  0  0  0  0  0  0  0  0
  124.7958  121.5320   89.8405 O   0  0  0  0  0  0  0  0  0  0  0  0
  126.0720  121.6880   90.4496 C   0  0  0  0  0  0  0  0  0  0  0  0
  125.8816  121.2675   87.6530 C   0  0  0  0  0  0  0  0  0  0  0  0
  126.1050  123.6080   84.1347 H   0  0  0  0  0  0  0  0  0  0  0  0
  127.5778  123.5211   83.1099 H   0  0  0  0  0  0  0  0  0  0  0  0
  126.4022  122.1629   83.1099 H   0  0  0  0  0  0  0  0  0  0  0  0
  128.6490  122.0338   84.5240 H   0  0  0  0  0  0  0  0  0  0  0  0
  127.6509  122.9988   85.7077 H   0  0  0  0  0  0  0  0  0  0  0  0
  126.6537  120.4056   84.5135 H   0  0  0  0  0  0  0  0  0  0  0  0
  127.7090  120.4807   86.0058 H   0  0  0  0  0  0  0  0  0  0  0  0
  124.3995  121.4755   84.5766 H   0  0  0  0  0  0  0  0  0  0  0  0
  122.4069  121.8963   86.0137 H   0  0  0  0  0  0  0  0  0  0  0  0
  121.3694  121.6890   86.8884 H   0  0  0  0  0  0  0  0  0  0  0  0
  120.7299  120.8280   88.3517 H   0  0  0  0  0  0  0  0  0  0  0  0
  119.1673  122.4969   88.2247 H   0  0  0  0  0  0  0  0  0  0  0  0
  120.4361  123.3526   89.1995 H   0  0  0  0  0  0  0  0  0  0  0  0
  120.6499  124.8669   87.4708 H   0  0  0  0  0  0  0  0  0  0  0  0
  117.9200  124.1487   86.5914 H   0  0  0  0  0  0  0  0  0  0  0  0
  118.3986  124.9608   85.0623 H   0  0  0  0  0  0  0  0  0  0  0  0
  118.0000  123.2093   85.0623 H   0  0  0  0  0  0  0  0  0  0  0  0
  125.9601  121.6743   91.5438 H   0  0  0  0  0  0  0  0  0  0  0  0
  126.7302  120.8636   90.1380 H   0  0  0  0  0  0  0  0  0  0  0  0
  126.5123  122.6467   90.1380 H   0  0  0  0  0  0  0  0  0  0  0  0
  126.8646  121.0908   88.1139 H   0  0  0  0  0  0  0  0  0  0  0  0
  1  2  1  0
  2  3  1  0
  3  4  1  0
  4  5  2  0
  5  6  1  0
  6  7  2  0
  7  8  1  0
  8  9  1  0
  9 10  1  0
 10 11  1  0
 11 12  1  0
 12 13  1  0
 12 14  2  0
  7 15  1  0
 15 16  1  0
 16 17  1  0
 15 18  2  0
 18  4  1  0
  1 19  1  0
  1 20  1  0
  1 21  1  0
  2 22  1  0
  2 23  1  0
  3 24  1  0
  3 25  1  0
  5 26  1  0
  6 27  1  0
  9 28  1  0
  9 29  1  0
 10 30  1  0
 10 31  1  0
 11 32  1  0
 13 33  1  0
 13 34  1  0
 13 35  1  0
 17 36  1  0
 17 37  1  0
 17 38  1  0
 18 39  1  0
M  END
>  <loss>  (20) 
0.32264167070388794

>  <score>  (20) 
7.784316062927246

$$$$
XACAJANRBWYFIE-UHFFFAOYSA-N
     RDKit          3D

 39 39  0  0  0  0  0  0  0  0999 V2000
  126.9113  122.7221   83.5778 C   0  0  0  0  0  0  0  0  0  0  0  0
  127.6789  122.3040   84.8219 C   0  0  0  0  0  0  0  0  0  0  0  0
  127.1101  121.0182   85.4229 C   0  0  0  0  0  0  0  0  0  0  0  0
  125.8643  121.2847   86.2313 C   0  0  0  0  0  0  0  0  0  0  0  0
  124.6443  121.5249   85.5931 C   0  0  0  0  0  0  0  0  0  0  0  0
  123.4929  121.7891   86.3389 C   0  0  0  0  0  0  0  0  0  0  0  0
  123.5464  121.8234   87.7356 C   0  0  0  0  0  0  0  0  0  0  0  0
  122.4665  122.0677   88.5476 O   0  0  0  0  0  0  0  0  0  0  0  0
  121.1713  121.7382   88.0451 C   0  0  0  0  0  0  0  0  0  0  0  0
  120.2689  122.9599   88.2348 C   0  0  0  0  0  0  0  0  0  0  0  0
  120.2415  123.8541   87.0903 N   0  0  0  0  0  0  0  0  0  0  0  0
  119.6455  123.4943   85.9047 C   0  0  0  0  0  0  0  0  0  0  0  0
  119.2172  124.6564   85.0494 C   0  0  0  0  0  0  0  0  0  0  0  0
  119.4680  122.3316   85.5586 O   0  0  0  0  0  0  0  0  0  0  0  0
  124.7707  121.5824   88.3899 C   0  0  0  0  0  0  0  0  0  0  0  0
  124.7413  121.6379   89.7625 O   0  0  0  0  0  0  0  0  0  0  0  0
  125.9856  121.6283   90.4466 C   0  0  0  0  0  0  0  0  0  0  0  0
  125.9199  121.3212   87.6327 C   0  0  0  0  0  0  0  0  0  0  0  0
  125.9811  123.2289   83.8740 H   0  0  0  0  0  0  0  0  0  0  0  0
  127.5285  123.4087   82.9797 H   0  0  0  0  0  0  0  0  0  0  0  0
  126.6692  121.8313   82.9797 H   0  0  0  0  0  0  0  0  0  0  0  0
  128.7325  122.1379   84.5534 H   0  0  0  0  0  0  0  0  0  0  0  0
  127.5882  123.1053   85.5701 H   0  0  0  0  0  0  0  0  0  0  0  0
  126.8641  120.3218   84.6077 H   0  0  0  0  0  0  0  0  0  0  0  0
  127.8686  120.5875   86.0931 H   0  0  0  0  0  0  0  0  0  0  0  0
  124.5902  121.5056   84.4946 H   0  0  0  0  0  0  0  0  0  0  0  0
  122.5382  121.9715   85.8240 H   0  0  0  0  0  0  0  0  0  0  0  0
  121.2381  121.4850   86.9767 H   0  0  0  0  0  0  0  0  0  0  0  0
  120.7607  120.8710   88.5830 H   0  0  0  0  0  0  0  0  0  0  0  0
  119.2441  122.6076   88.4237 H   0  0  0  0  0  0  0  0  0  0  0  0
  120.6803  123.5332   89.0785 H   0  0  0  0  0  0  0  0  0  0  0  0
  120.6804  124.7825   87.1691 H   0  0  0  0  0  0  0  0  0  0  0  0
  118.9090  125.4924   85.6944 H   0  0  0  0  0  0  0  0  0  0  0  0
  120.0575  124.9736   84.4144 H   0  0  0  0  0  0  0  0  0  0  0  0
  118.3720  124.3524   84.4144 H   0  0  0  0  0  0  0  0  0  0  0  0
  125.8073  121.6297   91.5320 H   0  0  0  0  0  0  0  0  0  0  0  0
  126.5498  120.7258   90.1688 H   0  0  0  0  0  0  0  0  0  0  0  0
  126.5637  122.5220   90.1688 H   0  0  0  0  0  0  0  0  0  0  0  0
  126.8777  121.1424   88.1432 H   0  0  0  0  0  0  0  0  0  0  0  0
  1  2  1  0
  2  3  1  0
  3  4  1  0
  4  5  2  0
  5  6  1  0
  6  7  2  0
  7  8  1  0
  8  9  1  0
  9 10  1  0
 10 11  1  0
 11 12  1  0
 12 13  1  0
 12 14  2  0
  7 15  1  0
 15 16  1  0
 16 17  1  0
 15 18  2  0
 18  4  1  0
  1 19  1  0
  1 20  1  0
  1 21  1  0
  2 22  1  0
  2 23  1  0
  3 24  1  0
  3 25  1  0
  5 26  1  0
  6 27  1  0
  9 28  1  0
  9 29  1  0
 10 30  1  0
 10 31  1  0
 11 32  1  0
 13 33  1  0
 13 34  1  0
 13 35  1  0
 17 36  1  0
 17 37  1  0
 17 38  1  0
 18 39  1  0
M  END
>  <loss>  (21) 
0.3402596116065979

>  <score>  (21) 
7.83349084854126

$$$$
XACAJANRBWYFIE-UHFFFAOYSA-N
     RDKit          3D

 39 39  0  0  0  0  0  0  0  0999 V2000
  126.9743  122.7510   83.4790 C   0  0  0  0  0  0  0  0  0  0  0  0
  127.6375  122.2941   84.7709 C   0  0  0  0  0  0  0  0  0  0  0  0
  126.9992  121.0341   85.3633 C   0  0  0  0  0  0  0  0  0  0  0  0
  125.7899  121.3109   86.2247 C   0  0  0  0  0  0  0  0  0  0  0  0
  124.5451  121.5661   85.6358 C   0  0  0  0  0  0  0  0  0  0  0  0
  123.4291  121.8216   86.4308 C   0  0  0  0  0  0  0  0  0  0  0  0
  123.5498  121.8093   87.8208 C   0  0  0  0  0  0  0  0  0  0  0  0
  122.4608  122.1028   88.6019 O   0  0  0  0  0  0  0  0  0  0  0  0
  121.2167  121.6906   88.0072 C   0  0  0  0  0  0  0  0  0  0  0  0
  120.1642  122.8052   88.0544 C   0  0  0  0  0  0  0  0  0  0  0  0
  120.3409  123.7627   86.9768 N   0  0  0  0  0  0  0  0  0  0  0  0
  119.7184  123.5862   85.7640 C   0  0  0  0  0  0  0  0  0  0  0  0
  119.0349  124.8215   85.2440 C   0  0  0  0  0  0  0  0  0  0  0  0
  119.7225  122.5281   85.1434 O   0  0  0  0  0  0  0  0  0  0  0  0
  124.7931  121.5910   88.4334 C   0  0  0  0  0  0  0  0  0  0  0  0
  124.8106  121.6177   89.8064 O   0  0  0  0  0  0  0  0  0  0  0  0
  126.0910  121.6546   90.4255 C   0  0  0  0  0  0  0  0  0  0  0  0
  125.9044  121.3263   87.6264 C   0  0  0  0  0  0  0  0  0  0  0  0
  126.0899  123.3604   83.7164 H   0  0  0  0  0  0  0  0  0  0  0  0
  127.6866  123.3509   82.8935 H   0  0  0  0  0  0  0  0  0  0  0  0
  126.6674  121.8718   82.8935 H   0  0  0  0  0  0  0  0  0  0  0  0
  128.6977  122.0853   84.5650 H   0  0  0  0  0  0  0  0  0  0  0  0
  127.5110  123.1018   85.5069 H   0  0  0  0  0  0  0  0  0  0  0  0
  126.6924  120.3786   84.5350 H   0  0  0  0  0  0  0  0  0  0  0  0
  127.7547  120.5670   86.0121 H   0  0  0  0  0  0  0  0  0  0  0  0
  124.4477  121.5648   84.5401 H   0  0  0  0  0  0  0  0  0  0  0  0
  122.4558  122.0324   85.9637 H   0  0  0  0  0  0  0  0  0  0  0  0
  121.3978  121.4165   86.9574 H   0  0  0  0  0  0  0  0  0  0  0  0
  120.8321  120.8336   88.5796 H   0  0  0  0  0  0  0  0  0  0  0  0
  119.1646  122.3543   87.9691 H   0  0  0  0  0  0  0  0  0  0  0  0
  120.2775  123.3409   89.0084 H   0  0  0  0  0  0  0  0  0  0  0  0
  120.9416  124.5864   87.1236 H   0  0  0  0  0  0  0  0  0  0  0  0
  118.6947  125.4362   86.0904 H   0  0  0  0  0  0  0  0  0  0  0  0
  119.7409  125.4006   84.6307 H   0  0  0  0  0  0  0  0  0  0  0  0
  118.1692  124.5308   84.6307 H   0  0  0  0  0  0  0  0  0  0  0  0
  125.9699  121.6511   91.5188 H   0  0  0  0  0  0  0  0  0  0  0  0
  126.6724  120.7729   90.1182 H   0  0  0  0  0  0  0  0  0  0  0  0
  126.6207  122.5684   90.1182 H   0  0  0  0  0  0  0  0  0  0  0  0
  126.8802  121.1277   88.0939 H   0  0  0  0  0  0  0  0  0  0  0  0
  1  2  1  0
  2  3  1  0
  3  4  1  0
  4  5  2  0
  5  6  1  0
  6  7  2  0
  7  8  1  0
  8  9  1  0
  9 10  1  0
 10 11  1  0
 11 12  1  0
 12 13  1  0
 12 14  2  0
  7 15  1  0
 15 16  1  0
 16 17  1  0
 15 18  2  0
 18  4  1  0
  1 19  1  0
  1 20  1  0
  1 21  1  0
  2 22  1  0
  2 23  1  0
  3 24  1  0
  3 25  1  0
  5 26  1  0
  6 27  1  0
  9 28  1  0
  9 29  1  0
 10 30  1  0
 10 31  1  0
 11 32  1  0
 13 33  1  0
 13 34  1  0
 13 35  1  0
 17 36  1  0
 17 37  1  0
 17 38  1  0
 18 39  1  0
M  END
>  <loss>  (22) 
0.3288964033126831

>  <score>  (22) 
7.734663009643555

$$$$
XACAJANRBWYFIE-UHFFFAOYSA-N
     RDKit          3D

 39 39  0  0  0  0  0  0  0  0999 V2000
  127.6393  123.0060   84.5094 C   0  0  0  0  0  0  0  0  0  0  0  0
  127.0525  121.6405   84.1902 C   0  0  0  0  0  0  0  0  0  0  0  0
  126.9278  120.7784   85.4473 C   0  0  0  0  0  0  0  0  0  0  0  0
  125.7731  121.2194   86.3138 C   0  0  0  0  0  0  0  0  0  0  0  0
  124.5421  121.5506   85.7350 C   0  0  0  0  0  0  0  0  0  0  0  0
  123.4714  121.9426   86.5363 C   0  0  0  0  0  0  0  0  0  0  0  0
  123.6309  122.0144   87.9208 C   0  0  0  0  0  0  0  0  0  0  0  0
  122.5671  122.3611   88.7154 O   0  0  0  0  0  0  0  0  0  0  0  0
  121.3934  121.5707   88.4585 C   0  0  0  0  0  0  0  0  0  0  0  0
  120.7685  121.8936   87.0986 C   0  0  0  0  0  0  0  0  0  0  0  0
  120.0482  123.1540   87.1285 N   0  0  0  0  0  0  0  0  0  0  0  0
  119.7708  123.8388   85.9697 C   0  0  0  0  0  0  0  0  0  0  0  0
  118.3869  124.4273   85.9343 C   0  0  0  0  0  0  0  0  0  0  0  0
  120.5525  123.9408   85.0304 O   0  0  0  0  0  0  0  0  0  0  0  0
  124.8433  121.6501   88.5271 C   0  0  0  0  0  0  0  0  0  0  0  0
  124.8812  121.7238   89.8977 O   0  0  0  0  0  0  0  0  0  0  0  0
  126.1638  121.6716   90.5120 C   0  0  0  0  0  0  0  0  0  0  0  0
  125.9126  121.2637   87.7125 C   0  0  0  0  0  0  0  0  0  0  0  0
  127.6949  123.1353   85.6004 H   0  0  0  0  0  0  0  0  0  0  0  0
  128.6490  123.0808   84.0794 H   0  0  0  0  0  0  0  0  0  0  0  0
  126.9987  123.7900   84.0794 H   0  0  0  0  0  0  0  0  0  0  0  0
  126.0543  121.7745   83.7479 H   0  0  0  0  0  0  0  0  0  0  0  0
  127.7264  121.1303   83.4863 H   0  0  0  0  0  0  0  0  0  0  0  0
  126.7694  119.7319   85.1478 H   0  0  0  0  0  0  0  0  0  0  0  0
  127.8546  120.8854   86.0301 H   0  0  0  0  0  0  0  0  0  0  0  0
  124.4194  121.5010   84.6430 H   0  0  0  0  0  0  0  0  0  0  0  0
  122.5034  122.1948   86.0788 H   0  0  0  0  0  0  0  0  0  0  0  0
  121.6711  120.5065   88.4776 H   0  0  0  0  0  0  0  0  0  0  0  0
  120.6512  121.8032   89.2364 H   0  0  0  0  0  0  0  0  0  0  0  0
  121.5669  121.9563   86.3445 H   0  0  0  0  0  0  0  0  0  0  0  0
  120.0548  121.0947   86.8489 H   0  0  0  0  0  0  0  0  0  0  0  0
  119.7404  123.5407   88.0321 H   0  0  0  0  0  0  0  0  0  0  0  0
  118.0270  124.5803   86.9624 H   0  0  0  0  0  0  0  0  0  0  0  0
  118.4122  125.3925   85.4072 H   0  0  0  0  0  0  0  0  0  0  0  0
  117.7093  123.7394   85.4072 H   0  0  0  0  0  0  0  0  0  0  0  0
  126.0469  121.6763   91.6058 H   0  0  0  0  0  0  0  0  0  0  0  0
  126.6814  120.7516   90.2026 H   0  0  0  0  0  0  0  0  0  0  0  0
  126.7545  122.5464   90.2026 H   0  0  0  0  0  0  0  0  0  0  0  0
  126.8744  120.9911   88.1715 H   0  0  0  0  0  0  0  0  0  0  0  0
  1  2  1  0
  2  3  1  0
  3  4  1  0
  4  5  2  0
  5  6  1  0
  6  7  2  0
  7  8  1  0
  8  9  1  0
  9 10  1  0
 10 11  1  0
 11 12  1  0
 12 13  1  0
 12 14  2  0
  7 15  1  0
 15 16  1  0
 16 17  1  0
 15 18  2  0
 18  4  1  0
  1 19  1  0
  1 20  1  0
  1 21  1  0
  2 22  1  0
  2 23  1  0
  3 24  1  0
  3 25  1  0
  5 26  1  0
  6 27  1  0
  9 28  1  0
  9 29  1  0
 10 30  1  0
 10 31  1  0
 11 32  1  0
 13 33  1  0
 13 34  1  0
 13 35  1  0
 17 36  1  0
 17 37  1  0
 17 38  1  0
 18 39  1  0
M  END
>  <loss>  (23) 
0.3452029526233673

>  <score>  (23) 
7.739438533782959

$$$$
XACAJANRBWYFIE-UHFFFAOYSA-N
     RDKit          3D

 39 39  0  0  0  0  0  0  0  0999 V2000
  127.4019  123.1505   84.3803 C   0  0  0  0  0  0  0  0  0  0  0  0
  127.0053  121.7074   84.1139 C   0  0  0  0  0  0  0  0  0  0  0  0
  126.9394  120.8978   85.4097 C   0  0  0  0  0  0  0  0  0  0  0  0
  125.7666  121.3101   86.2659 C   0  0  0  0  0  0  0  0  0  0  0  0
  124.5324  121.6093   85.6764 C   0  0  0  0  0  0  0  0  0  0  0  0
  123.4454  121.9748   86.4681 C   0  0  0  0  0  0  0  0  0  0  0  0
  123.5913  122.0518   87.8539 C   0  0  0  0  0  0  0  0  0  0  0  0
  122.5123  122.3721   88.6390 O   0  0  0  0  0  0  0  0  0  0  0  0
  121.3601  121.5544   88.3704 C   0  0  0  0  0  0  0  0  0  0  0  0
  120.7151  121.8937   87.0240 C   0  0  0  0  0  0  0  0  0  0  0  0
  119.9778  123.1430   87.0855 N   0  0  0  0  0  0  0  0  0  0  0  0
  119.7166  123.8680   85.9476 C   0  0  0  0  0  0  0  0  0  0  0  0
  118.3167  124.4157   85.8903 C   0  0  0  0  0  0  0  0  0  0  0  0
  120.5246  124.0334   85.0402 O   0  0  0  0  0  0  0  0  0  0  0  0
  124.8074  121.7190   88.4708 C   0  0  0  0  0  0  0  0  0  0  0  0
  124.8317  121.7948   89.8415 O   0  0  0  0  0  0  0  0  0  0  0  0
  126.1056  121.7109   90.4705 C   0  0  0  0  0  0  0  0  0  0  0  0
  125.8930  121.3592   87.6657 C   0  0  0  0  0  0  0  0  0  0  0  0
  127.4494  123.3233   85.4656 H   0  0  0  0  0  0  0  0  0  0  0  0
  128.3876  123.3482   83.9340 H   0  0  0  0  0  0  0  0  0  0  0  0
  126.6556  123.8242   83.9340 H   0  0  0  0  0  0  0  0  0  0  0  0
  126.0170  121.6912   83.6312 H   0  0  0  0  0  0  0  0  0  0  0  0
  127.7662  121.2543   83.4613 H   0  0  0  0  0  0  0  0  0  0  0  0
  126.8405  119.8313   85.1593 H   0  0  0  0  0  0  0  0  0  0  0  0
  127.8621  121.0850   85.9786 H   0  0  0  0  0  0  0  0  0  0  0  0
  124.4203  121.5557   84.5834 H   0  0  0  0  0  0  0  0  0  0  0  0
  122.4752  122.2019   86.0022 H   0  0  0  0  0  0  0  0  0  0  0  0
  121.6689  120.4987   88.3599 H   0  0  0  0  0  0  0  0  0  0  0  0
  120.6178  121.7450   89.1595 H   0  0  0  0  0  0  0  0  0  0  0  0
  121.5037  121.9814   86.2621 H   0  0  0  0  0  0  0  0  0  0  0  0
  120.0096  121.0895   86.7675 H   0  0  0  0  0  0  0  0  0  0  0  0
  119.6454  123.4912   87.9961 H   0  0  0  0  0  0  0  0  0  0  0  0
  117.9386  124.5636   86.9126 H   0  0  0  0  0  0  0  0  0  0  0  0
  118.3211  125.3784   85.3581 H   0  0  0  0  0  0  0  0  0  0  0  0
  117.6667  123.7055   85.3581 H   0  0  0  0  0  0  0  0  0  0  0  0
  125.9765  121.7194   91.5628 H   0  0  0  0  0  0  0  0  0  0  0  0
  126.6034  120.7780   90.1673 H   0  0  0  0  0  0  0  0  0  0  0  0
  126.7215  122.5705   90.1673 H   0  0  0  0  0  0  0  0  0  0  0  0
  126.8575  121.1115   88.1331 H   0  0  0  0  0  0  0  0  0  0  0  0
  1  2  1  0
  2  3  1  0
  3  4  1  0
  4  5  2  0
  5  6  1  0
  6  7  2  0
  7  8  1  0
  8  9  1  0
  9 10  1  0
 10 11  1  0
 11 12  1  0
 12 13  1  0
 12 14  2  0
  7 15  1  0
 15 16  1  0
 16 17  1  0
 15 18  2  0
 18  4  1  0
  1 19  1  0
  1 20  1  0
  1 21  1  0
  2 22  1  0
  2 23  1  0
  3 24  1  0
  3 25  1  0
  5 26  1  0
  6 27  1  0
  9 28  1  0
  9 29  1  0
 10 30  1  0
 10 31  1  0
 11 32  1  0
 13 33  1  0
 13 34  1  0
 13 35  1  0
 17 36  1  0
 17 37  1  0
 17 38  1  0
 18 39  1  0
M  END
>  <loss>  (24) 
0.3476838767528534

>  <score>  (24) 
7.609317302703857

$$$$
XACAJANRBWYFIE-UHFFFAOYSA-N
     RDKit          3D

 39 39  0  0  0  0  0  0  0  0999 V2000
  127.5589  123.0780   84.5582 C   0  0  0  0  0  0  0  0  0  0  0  0
  127.0502  121.6878   84.2125 C   0  0  0  0  0  0  0  0  0  0  0  0
  126.9092  120.8178   85.4625 C   0  0  0  0  0  0  0  0  0  0  0  0
  125.7434  121.2535   86.3166 C   0  0  0  0  0  0  0  0  0  0  0  0
  124.5041  121.5355   85.7293 C   0  0  0  0  0  0  0  0  0  0  0  0
  123.4235  121.9225   86.5197 C   0  0  0  0  0  0  0  0  0  0  0  0
  123.5810  122.0385   87.9014 C   0  0  0  0  0  0  0  0  0  0  0  0
  122.5085  122.3802   88.6863 O   0  0  0  0  0  0  0  0  0  0  0  0
  121.3179  121.6411   88.3628 C   0  0  0  0  0  0  0  0  0  0  0  0
  120.7943  121.9772   86.9639 C   0  0  0  0  0  0  0  0  0  0  0  0
  119.9220  123.1377   86.9855 N   0  0  0  0  0  0  0  0  0  0  0  0
  119.7300  123.9006   85.8587 C   0  0  0  0  0  0  0  0  0  0  0  0
  118.2893  124.2530   85.6079 C   0  0  0  0  0  0  0  0  0  0  0  0
  120.6314  124.2410   85.1002 O   0  0  0  0  0  0  0  0  0  0  0  0
  124.8025  121.7237   88.5171 C   0  0  0  0  0  0  0  0  0  0  0  0
  124.8383  121.8380   89.8850 O   0  0  0  0  0  0  0  0  0  0  0  0
  126.0781  121.5560   90.5243 C   0  0  0  0  0  0  0  0  0  0  0  0
  125.8815  121.3419   87.7133 C   0  0  0  0  0  0  0  0  0  0  0  0
  127.6005  123.1919   85.6515 H   0  0  0  0  0  0  0  0  0  0  0  0
  128.5655  123.2155   84.1366 H   0  0  0  0  0  0  0  0  0  0  0  0
  126.8786  123.8327   84.1366 H   0  0  0  0  0  0  0  0  0  0  0  0
  126.0678  121.7770   83.7259 H   0  0  0  0  0  0  0  0  0  0  0  0
  127.7777  121.2108   83.5393 H   0  0  0  0  0  0  0  0  0  0  0  0
  126.7547  119.7732   85.1543 H   0  0  0  0  0  0  0  0  0  0  0  0
  127.8283  120.9210   86.0579 H   0  0  0  0  0  0  0  0  0  0  0  0
  124.3828  121.4512   84.6393 H   0  0  0  0  0  0  0  0  0  0  0  0
  122.4493  122.1361   86.0557 H   0  0  0  0  0  0  0  0  0  0  0  0
  121.5447  120.5657   88.4079 H   0  0  0  0  0  0  0  0  0  0  0  0
  120.5402  121.9155   89.0908 H   0  0  0  0  0  0  0  0  0  0  0  0
  121.6488  122.1850   86.3031 H   0  0  0  0  0  0  0  0  0  0  0  0
  120.2148  121.1173   86.5971 H   0  0  0  0  0  0  0  0  0  0  0  0
  119.4396  123.3932   87.8590 H   0  0  0  0  0  0  0  0  0  0  0  0
  117.7702  124.3800   86.5693 H   0  0  0  0  0  0  0  0  0  0  0  0
  118.2355  125.1908   85.0355 H   0  0  0  0  0  0  0  0  0  0  0  0
  117.8086  123.4460   85.0355 H   0  0  0  0  0  0  0  0  0  0  0  0
  125.9432  121.5867   91.6156 H   0  0  0  0  0  0  0  0  0  0  0  0
  126.4255  120.5559   90.2258 H   0  0  0  0  0  0  0  0  0  0  0  0
  126.8239  122.3075   90.2258 H   0  0  0  0  0  0  0  0  0  0  0  0
  126.8501  121.1078   88.1793 H   0  0  0  0  0  0  0  0  0  0  0  0
  1  2  1  0
  2  3  1  0
  3  4  1  0
  4  5  2  0
  5  6  1  0
  6  7  2  0
  7  8  1  0
  8  9  1  0
  9 10  1  0
 10 11  1  0
 11 12  1  0
 12 13  1  0
 12 14  2  0
  7 15  1  0
 15 16  1  0
 16 17  1  0
 15 18  2  0
 18  4  1  0
  1 19  1  0
  1 20  1  0
  1 21  1  0
  2 22  1  0
  2 23  1  0
  3 24  1  0
  3 25  1  0
  5 26  1  0
  6 27  1  0
  9 28  1  0
  9 29  1  0
 10 30  1  0
 10 31  1  0
 11 32  1  0
 13 33  1  0
 13 34  1  0
 13 35  1  0
 17 36  1  0
 17 37  1  0
 17 38  1  0
 18 39  1  0
M  END
>  <loss>  (25) 
0.3474319279193878

>  <score>  (25) 
7.6045050621032715

$$$$
