YIDIZQBWUATQEG-UHFFFAOYSA-N
     RDKit          3D

 28 28  0  0  0  0  0  0  0  0999 V2000
  120.7612  124.0339   85.3098 C   0  0  0  0  0  0  0  0  0  0  0  0
  122.2798  124.1499   85.2975 C   0  0  0  0  0  0  0  0  0  0  0  0
  122.9427  122.8741   84.9844 N   0  0  0  0  0  0  0  0  0  0  0  0
  122.5882  121.7329   85.8425 C   0  0  0  0  0  0  0  0  0  0  0  0
  123.4553  121.6542   87.0785 C   0  0  0  0  0  0  0  0  0  0  0  0
  122.8784  121.6036   88.3562 C   0  0  0  0  0  0  0  0  0  0  0  0
  123.6834  121.5438   89.4952 C   0  0  0  0  0  0  0  0  0  0  0  0
  125.0712  121.5334   89.3698 C   0  0  0  0  0  0  0  0  0  0  0  0
  125.6561  121.5810   88.1061 C   0  0  0  0  0  0  0  0  0  0  0  0
  124.8533  121.6407   86.9662 C   0  0  0  0  0  0  0  0  0  0  0  0
  123.9325  122.6610   84.0050 C   0  0  0  0  0  0  0  0  0  0  0  0
  124.6977  121.6927   84.1428 O   0  0  0  0  0  0  0  0  0  0  0  0
  124.0975  123.6150   82.7818 C   0  0  0  0  0  0  0  0  0  0  0  0
  123.3476  125.1958   83.1378 Cl  0  0  0  0  0  0  0  0  0  0  0  0
  125.8495  123.9208   82.4748 Cl  0  0  0  0  0  0  0  0  0  0  0  0
  123.4371  122.8734   81.3010 Cl  0  0  0  0  0  0  0  0  0  0  0  0
  120.4040  124.0066   86.3498 H   0  0  0  0  0  0  0  0  0  0  0  0
  120.3230  124.9012   84.7943 H   0  0  0  0  0  0  0  0  0  0  0  0
  120.4599  123.1101   84.7943 H   0  0  0  0  0  0  0  0  0  0  0  0
  122.5702  124.8929   84.5400 H   0  0  0  0  0  0  0  0  0  0  0  0
  122.5989  124.4523   86.3058 H   0  0  0  0  0  0  0  0  0  0  0  0
  121.5380  121.8364   86.1529 H   0  0  0  0  0  0  0  0  0  0  0  0
  122.7461  120.8125   85.2612 H   0  0  0  0  0  0  0  0  0  0  0  0
  121.7834  121.6111   88.4614 H   0  0  0  0  0  0  0  0  0  0  0  0
  123.2216  121.5049   90.4928 H   0  0  0  0  0  0  0  0  0  0  0  0
  125.7045  121.4877   90.2680 H   0  0  0  0  0  0  0  0  0  0  0  0
  126.7516  121.5716   88.0069 H   0  0  0  0  0  0  0  0  0  0  0  0
  125.3208  121.6775   85.9712 H   0  0  0  0  0  0  0  0  0  0  0  0
  1  2  1  0
  2  3  1  0
  3  4  1  0
  4  5  1  0
  5  6  2  0
  6  7  1  0
  7  8  2  0
  8  9  1  0
  9 10  2  0
  3 11  1  0
 11 12  2  0
 11 13  1  0
 13 14  1  0
 13 15  1  0
 13 16  1  0
 10  5  1  0
  1 17  1  0
  1 18  1  0
  1 19  1  0
  2 20  1  0
  2 21  1  0
  4 22  1  0
  4 23  1  0
  6 24  1  0
  7 25  1  0
  8 26  1  0
  9 27  1  0
 10 28  1  0
M  END
>  <loss>  (1) 
0.6230430006980896

>  <score>  (1) 
2.5332446098327637

$$$$
YIDIZQBWUATQEG-UHFFFAOYSA-N
     RDKit          3D

 28 28  0  0  0  0  0  0  0  0999 V2000
  120.8987  123.9293   85.3914 C   0  0  0  0  0  0  0  0  0  0  0  0
  122.4149  124.0564   85.3415 C   0  0  0  0  0  0  0  0  0  0  0  0
  123.0719  122.7877   84.9850 N   0  0  0  0  0  0  0  0  0  0  0  0
  122.8161  121.6469   85.8800 C   0  0  0  0  0  0  0  0  0  0  0  0
  123.7325  121.5901   87.0803 C   0  0  0  0  0  0  0  0  0  0  0  0
  123.2000  121.4830   88.3738 C   0  0  0  0  0  0  0  0  0  0  0  0
  124.0434  121.4123   89.4840 C   0  0  0  0  0  0  0  0  0  0  0  0
  125.4260  121.4416   89.3139 C   0  0  0  0  0  0  0  0  0  0  0  0
  125.9674  121.5398   88.0341 C   0  0  0  0  0  0  0  0  0  0  0  0
  125.1264  121.6106   86.9225 C   0  0  0  0  0  0  0  0  0  0  0  0
  123.6080  122.7022   83.6819 C   0  0  0  0  0  0  0  0  0  0  0  0
  123.2834  121.7327   82.9771 O   0  0  0  0  0  0  0  0  0  0  0  0
  124.5834  123.7832   83.1221 C   0  0  0  0  0  0  0  0  0  0  0  0
  126.2708  123.3274   83.4880 Cl  0  0  0  0  0  0  0  0  0  0  0  0
  124.1656  125.3947   83.7616 Cl  0  0  0  0  0  0  0  0  0  0  0  0
  124.4374  123.8750   81.3279 Cl  0  0  0  0  0  0  0  0  0  0  0  0
  120.5674  123.9015   86.4400 H   0  0  0  0  0  0  0  0  0  0  0  0
  120.4415  124.7922   84.8852 H   0  0  0  0  0  0  0  0  0  0  0  0
  120.5917  123.0022   84.8852 H   0  0  0  0  0  0  0  0  0  0  0  0
  122.6814  124.8156   84.5914 H   0  0  0  0  0  0  0  0  0  0  0  0
  122.7611  124.3437   86.3453 H   0  0  0  0  0  0  0  0  0  0  0  0
  121.7788  121.7151   86.2396 H   0  0  0  0  0  0  0  0  0  0  0  0
  123.0021  120.7347   85.2940 H   0  0  0  0  0  0  0  0  0  0  0  0
  122.1094  121.4545   88.5143 H   0  0  0  0  0  0  0  0  0  0  0  0
  123.6159  121.3333   90.4944 H   0  0  0  0  0  0  0  0  0  0  0  0
  126.0895  121.3872   90.1896 H   0  0  0  0  0  0  0  0  0  0  0  0
  127.0589  121.5616   87.8995 H   0  0  0  0  0  0  0  0  0  0  0  0
  125.5602  121.6830   85.9142 H   0  0  0  0  0  0  0  0  0  0  0  0
  1  2  1  0
  2  3  1  0
  3  4  1  0
  4  5  1  0
  5  6  2  0
  6  7  1  0
  7  8  2  0
  8  9  1  0
  9 10  2  0
  3 11  1  0
 11 12  2  0
 11 13  1  0
 13 14  1  0
 13 15  1  0
 13 16  1  0
 10  5  1  0
  1 17  1  0
  1 18  1  0
  1 19  1  0
  2 20  1  0
  2 21  1  0
  4 22  1  0
  4 23  1  0
  6 24  1  0
  7 25  1  0
  8 26  1  0
  9 27  1  0
 10 28  1  0
M  END
>  <loss>  (2) 
0.657054603099823

>  <score>  (2) 
2.664299488067627

$$$$
YIDIZQBWUATQEG-UHFFFAOYSA-N
     RDKit          3D

 28 28  0  0  0  0  0  0  0  0999 V2000
  120.8288  124.1599   85.3887 C   0  0  0  0  0  0  0  0  0  0  0  0
  122.3459  124.2395   85.2804 C   0  0  0  0  0  0  0  0  0  0  0  0
  122.9620  122.9356   84.9880 N   0  0  0  0  0  0  0  0  0  0  0  0
  122.5526  121.8179   85.8527 C   0  0  0  0  0  0  0  0  0  0  0  0
  123.4343  121.6852   87.0737 C   0  0  0  0  0  0  0  0  0  0  0  0
  122.8723  121.5382   88.3505 C   0  0  0  0  0  0  0  0  0  0  0  0
  123.6904  121.4288   89.4764 C   0  0  0  0  0  0  0  0  0  0  0  0
  125.0766  121.4645   89.3385 C   0  0  0  0  0  0  0  0  0  0  0  0
  125.6469  121.6079   88.0754 C   0  0  0  0  0  0  0  0  0  0  0  0
  124.8309  121.7173   86.9486 C   0  0  0  0  0  0  0  0  0  0  0  0
  123.9545  122.6740   84.0232 C   0  0  0  0  0  0  0  0  0  0  0  0
  124.8961  121.9269   84.3355 O   0  0  0  0  0  0  0  0  0  0  0  0
  123.9062  123.3116   82.6004 C   0  0  0  0  0  0  0  0  0  0  0  0
  124.3851  125.0295   82.6869 Cl  0  0  0  0  0  0  0  0  0  0  0  0
  125.0934  122.4881   81.5189 Cl  0  0  0  0  0  0  0  0  0  0  0  0
  122.2989  123.0961   81.8593 Cl  0  0  0  0  0  0  0  0  0  0  0  0
  120.5372  124.1446   86.4493 H   0  0  0  0  0  0  0  0  0  0  0  0
  120.3796  125.0357   84.8976 H   0  0  0  0  0  0  0  0  0  0  0  0
  120.4738  123.2418   84.8976 H   0  0  0  0  0  0  0  0  0  0  0  0
  122.6050  124.9404   84.4731 H   0  0  0  0  0  0  0  0  0  0  0  0
  122.7317  124.5796   86.2527 H   0  0  0  0  0  0  0  0  0  0  0  0
  121.5162  121.9858   86.1811 H   0  0  0  0  0  0  0  0  0  0  0  0
  122.6433  120.8899   85.2692 H   0  0  0  0  0  0  0  0  0  0  0  0
  121.7787  121.5089   88.4655 H   0  0  0  0  0  0  0  0  0  0  0  0
  123.2403  121.3142   90.4735 H   0  0  0  0  0  0  0  0  0  0  0  0
  125.7203  121.3795   90.2265 H   0  0  0  0  0  0  0  0  0  0  0  0
  126.7411  121.6348   87.9662 H   0  0  0  0  0  0  0  0  0  0  0  0
  125.2869  121.8297   85.9539 H   0  0  0  0  0  0  0  0  0  0  0  0
  1  2  1  0
  2  3  1  0
  3  4  1  0
  4  5  1  0
  5  6  2  0
  6  7  1  0
  7  8  2  0
  8  9  1  0
  9 10  2  0
  3 11  1  0
 11 12  2  0
 11 13  1  0
 13 14  1  0
 13 15  1  0
 13 16  1  0
 10  5  1  0
  1 17  1  0
  1 18  1  0
  1 19  1  0
  2 20  1  0
  2 21  1  0
  4 22  1  0
  4 23  1  0
  6 24  1  0
  7 25  1  0
  8 26  1  0
  9 27  1  0
 10 28  1  0
M  END
>  <loss>  (3) 
0.6230736970901489

>  <score>  (3) 
2.4741411209106445

$$$$
YIDIZQBWUATQEG-UHFFFAOYSA-N
     RDKit          3D

 28 28  0  0  0  0  0  0  0  0999 V2000
  120.9102  123.9527   85.3788 C   0  0  0  0  0  0  0  0  0  0  0  0
  122.4257  124.0649   85.2889 C   0  0  0  0  0  0  0  0  0  0  0  0
  123.0638  122.7799   84.9573 N   0  0  0  0  0  0  0  0  0  0  0  0
  122.7834  121.6581   85.8688 C   0  0  0  0  0  0  0  0  0  0  0  0
  123.7013  121.5965   87.0678 C   0  0  0  0  0  0  0  0  0  0  0  0
  123.1701  121.4977   88.3624 C   0  0  0  0  0  0  0  0  0  0  0  0
  124.0147  121.4225   89.4714 C   0  0  0  0  0  0  0  0  0  0  0  0
  125.3971  121.4391   89.2990 C   0  0  0  0  0  0  0  0  0  0  0  0
  125.9373  121.5290   88.0180 C   0  0  0  0  0  0  0  0  0  0  0  0
  125.0951  121.6042   86.9076 C   0  0  0  0  0  0  0  0  0  0  0  0
  123.6068  122.6644   83.6593 C   0  0  0  0  0  0  0  0  0  0  0  0
  123.2948  121.6731   82.9797 O   0  0  0  0  0  0  0  0  0  0  0  0
  124.5743  123.7393   83.0748 C   0  0  0  0  0  0  0  0  0  0  0  0
  124.5788  123.6477   81.2913 Cl  0  0  0  0  0  0  0  0  0  0  0  0
  126.2083  123.5521   83.7644 Cl  0  0  0  0  0  0  0  0  0  0  0  0
  124.0020  125.3900   83.5183 Cl  0  0  0  0  0  0  0  0  0  0  0  0
  120.6062  123.9302   86.4357 H   0  0  0  0  0  0  0  0  0  0  0  0
  120.4483  124.8191   84.8828 H   0  0  0  0  0  0  0  0  0  0  0  0
  120.5810  123.0277   84.8828 H   0  0  0  0  0  0  0  0  0  0  0  0
  122.6803  124.7977   84.5091 H   0  0  0  0  0  0  0  0  0  0  0  0
  122.7982  124.3806   86.2746 H   0  0  0  0  0  0  0  0  0  0  0  0
  121.7489  121.7559   86.2297 H   0  0  0  0  0  0  0  0  0  0  0  0
  122.9463  120.7337   85.2954 H   0  0  0  0  0  0  0  0  0  0  0  0
  122.0795  121.4793   88.5048 H   0  0  0  0  0  0  0  0  0  0  0  0
  123.5882  121.3500   90.4828 H   0  0  0  0  0  0  0  0  0  0  0  0
  126.0616  121.3812   90.1737 H   0  0  0  0  0  0  0  0  0  0  0  0
  127.0287  121.5407   87.8816 H   0  0  0  0  0  0  0  0  0  0  0  0
  125.5278  121.6700   85.8984 H   0  0  0  0  0  0  0  0  0  0  0  0
  1  2  1  0
  2  3  1  0
  3  4  1  0
  4  5  1  0
  5  6  2  0
  6  7  1  0
  7  8  2  0
  8  9  1  0
  9 10  2  0
  3 11  1  0
 11 12  2  0
 11 13  1  0
 13 14  1  0
 13 15  1  0
 13 16  1  0
 10  5  1  0
  1 17  1  0
  1 18  1  0
  1 19  1  0
  2 20  1  0
  2 21  1  0
  4 22  1  0
  4 23  1  0
  6 24  1  0
  7 25  1  0
  8 26  1  0
  9 27  1  0
 10 28  1  0
M  END
>  <loss>  (4) 
0.6561239957809448

>  <score>  (4) 
2.621370315551758

$$$$
YIDIZQBWUATQEG-UHFFFAOYSA-N
     RDKit          3D

 28 28  0  0  0  0  0  0  0  0999 V2000
  121.0426  124.2434   85.3013 C   0  0  0  0  0  0  0  0  0  0  0  0
  122.5291  124.0091   85.5361 C   0  0  0  0  0  0  0  0  0  0  0  0
  123.0164  122.7776   84.8949 N   0  0  0  0  0  0  0  0  0  0  0  0
  122.8604  121.5380   85.6718 C   0  0  0  0  0  0  0  0  0  0  0  0
  123.6888  121.5462   86.9365 C   0  0  0  0  0  0  0  0  0  0  0  0
  123.0725  121.5668   88.1964 C   0  0  0  0  0  0  0  0  0  0  0  0
  123.8418  121.5872   89.3613 C   0  0  0  0  0  0  0  0  0  0  0  0
  125.2329  121.5866   89.2796 C   0  0  0  0  0  0  0  0  0  0  0  0
  125.8568  121.5640   88.0340 C   0  0  0  0  0  0  0  0  0  0  0  0
  125.0897  121.5435   86.8684 C   0  0  0  0  0  0  0  0  0  0  0  0
  123.6830  122.6831   83.6575 C   0  0  0  0  0  0  0  0  0  0  0  0
  123.6081  121.6146   83.0291 O   0  0  0  0  0  0  0  0  0  0  0  0
  124.5178  123.8679   83.0809 C   0  0  0  0  0  0  0  0  0  0  0  0
  123.7445  125.4203   83.5053 Cl  0  0  0  0  0  0  0  0  0  0  0  0
  126.1621  123.8784   83.8246 Cl  0  0  0  0  0  0  0  0  0  0  0  0
  124.7493  123.6884   81.3221 Cl  0  0  0  0  0  0  0  0  0  0  0  0
  120.5268  124.3248   86.2695 H   0  0  0  0  0  0  0  0  0  0  0  0
  120.9036  125.1746   84.7325 H   0  0  0  0  0  0  0  0  0  0  0  0
  120.6238  123.4002   84.7325 H   0  0  0  0  0  0  0  0  0  0  0  0
  123.0891  124.8637   85.1286 H   0  0  0  0  0  0  0  0  0  0  0  0
  122.6824  123.9032   86.6202 H   0  0  0  0  0  0  0  0  0  0  0  0
  121.8008  121.4218   85.9436 H   0  0  0  0  0  0  0  0  0  0  0  0
  123.2084  120.7026   85.0466 H   0  0  0  0  0  0  0  0  0  0  0  0
  121.9748  121.5670   88.2672 H   0  0  0  0  0  0  0  0  0  0  0  0
  123.3492  121.6037   90.3447 H   0  0  0  0  0  0  0  0  0  0  0  0
  125.8381  121.6040   90.1980 H   0  0  0  0  0  0  0  0  0  0  0  0
  126.9549  121.5623   87.9694 H   0  0  0  0  0  0  0  0  0  0  0  0
  125.5880  121.5251   85.8879 H   0  0  0  0  0  0  0  0  0  0  0  0
  1  2  1  0
  2  3  1  0
  3  4  1  0
  4  5  1  0
  5  6  2  0
  6  7  1  0
  7  8  2  0
  8  9  1  0
  9 10  2  0
  3 11  1  0
 11 12  2  0
 11 13  1  0
 13 14  1  0
 13 15  1  0
 13 16  1  0
 10  5  1  0
  1 17  1  0
  1 18  1  0
  1 19  1  0
  2 20  1  0
  2 21  1  0
  4 22  1  0
  4 23  1  0
  6 24  1  0
  7 25  1  0
  8 26  1  0
  9 27  1  0
 10 28  1  0
M  END
>  <loss>  (5) 
0.6618559956550598

>  <score>  (5) 
2.595438241958618

$$$$
YIDIZQBWUATQEG-UHFFFAOYSA-N
     RDKit          3D

 28 28  0  0  0  0  0  0  0  0999 V2000
  120.9022  123.9605   85.4329 C   0  0  0  0  0  0  0  0  0  0  0  0
  122.4214  123.9463   85.5408 C   0  0  0  0  0  0  0  0  0  0  0  0
  123.0174  122.7229   84.9809 N   0  0  0  0  0  0  0  0  0  0  0  0
  122.8713  121.5029   85.7901 C   0  0  0  0  0  0  0  0  0  0  0  0
  123.7439  121.5261   87.0245 C   0  0  0  0  0  0  0  0  0  0  0  0
  123.1736  121.4904   88.3056 C   0  0  0  0  0  0  0  0  0  0  0  0
  123.9828  121.5248   89.4427 C   0  0  0  0  0  0  0  0  0  0  0  0
  125.3684  121.5947   89.3119 C   0  0  0  0  0  0  0  0  0  0  0  0
  125.9470  121.6285   88.0448 C   0  0  0  0  0  0  0  0  0  0  0  0
  125.1398  121.5941   86.9069 C   0  0  0  0  0  0  0  0  0  0  0  0
  123.7750  122.6245   83.7974 C   0  0  0  0  0  0  0  0  0  0  0  0
  124.0965  121.4937   83.3970 O   0  0  0  0  0  0  0  0  0  0  0  0
  124.2293  123.8888   83.0046 C   0  0  0  0  0  0  0  0  0  0  0  0
  126.0119  123.9906   82.9917 Cl  0  0  0  0  0  0  0  0  0  0  0  0
  123.6971  123.7582   81.2851 Cl  0  0  0  0  0  0  0  0  0  0  0  0
  123.4745  125.3621   83.6668 Cl  0  0  0  0  0  0  0  0  0  0  0  0
  120.4630  123.9647   86.4414 H   0  0  0  0  0  0  0  0  0  0  0  0
  120.5817  124.8617   84.8897 H   0  0  0  0  0  0  0  0  0  0  0  0
  120.5648  123.0655   84.8897 H   0  0  0  0  0  0  0  0  0  0  0  0
  122.8214  124.8141   84.9960 H   0  0  0  0  0  0  0  0  0  0  0  0
  122.6796  123.9835   86.6094 H   0  0  0  0  0  0  0  0  0  0  0  0
  121.8205  121.4084   86.1012 H   0  0  0  0  0  0  0  0  0  0  0  0
  123.1852  120.6491   85.1717 H   0  0  0  0  0  0  0  0  0  0  0  0
  122.0804  121.4348   88.4151 H   0  0  0  0  0  0  0  0  0  0  0  0
  123.5262  121.4967   90.4430 H   0  0  0  0  0  0  0  0  0  0  0  0
  126.0051  121.6231   90.2084 H   0  0  0  0  0  0  0  0  0  0  0  0
  127.0408  121.6824   87.9413 H   0  0  0  0  0  0  0  0  0  0  0  0
  125.6024  121.6204   85.9092 H   0  0  0  0  0  0  0  0  0  0  0  0
  1  2  1  0
  2  3  1  0
  3  4  1  0
  4  5  1  0
  5  6  2  0
  6  7  1  0
  7  8  2  0
  8  9  1  0
  9 10  2  0
  3 11  1  0
 11 12  2  0
 11 13  1  0
 13 14  1  0
 13 15  1  0
 13 16  1  0
 10  5  1  0
  1 17  1  0
  1 18  1  0
  1 19  1  0
  2 20  1  0
  2 21  1  0
  4 22  1  0
  4 23  1  0
  6 24  1  0
  7 25  1  0
  8 26  1  0
  9 27  1  0
 10 28  1  0
M  END
>  <loss>  (6) 
0.6781704425811768

>  <score>  (6) 
2.661268472671509

$$$$
YIDIZQBWUATQEG-UHFFFAOYSA-N
     RDKit          3D

 28 28  0  0  0  0  0  0  0  0999 V2000
  120.8487  123.8282   85.7202 C   0  0  0  0  0  0  0  0  0  0  0  0
  122.3695  123.8993   85.6763 C   0  0  0  0  0  0  0  0  0  0  0  0
  122.9754  122.7007   85.0751 N   0  0  0  0  0  0  0  0  0  0  0  0
  122.9021  121.4680   85.8748 C   0  0  0  0  0  0  0  0  0  0  0  0
  123.8336  121.5010   87.0653 C   0  0  0  0  0  0  0  0  0  0  0  0
  123.3293  121.4207   88.3718 C   0  0  0  0  0  0  0  0  0  0  0  0
  124.1923  121.4644   89.4683 C   0  0  0  0  0  0  0  0  0  0  0  0
  125.5663  121.5881   89.2711 C   0  0  0  0  0  0  0  0  0  0  0  0
  126.0795  121.6665   87.9782 C   0  0  0  0  0  0  0  0  0  0  0  0
  125.2186  121.6229   86.8807 C   0  0  0  0  0  0  0  0  0  0  0  0
  123.6812  122.6381   83.8576 C   0  0  0  0  0  0  0  0  0  0  0  0
  123.9732  121.5197   83.4037 O   0  0  0  0  0  0  0  0  0  0  0  0
  124.1153  123.9260   83.0919 C   0  0  0  0  0  0  0  0  0  0  0  0
  125.8959  123.9950   82.9781 Cl  0  0  0  0  0  0  0  0  0  0  0  0
  123.4814  123.8781   81.4029 Cl  0  0  0  0  0  0  0  0  0  0  0  0
  123.4315  125.3840   83.8573 Cl  0  0  0  0  0  0  0  0  0  0  0  0
  120.5124  123.8124   86.7674 H   0  0  0  0  0  0  0  0  0  0  0  0
  120.4257  124.7075   85.2124 H   0  0  0  0  0  0  0  0  0  0  0  0
  120.5097  122.9132   85.2124 H   0  0  0  0  0  0  0  0  0  0  0  0
  122.6640  124.7779   85.0836 H   0  0  0  0  0  0  0  0  0  0  0  0
  122.7296  123.9700   86.7133 H   0  0  0  0  0  0  0  0  0  0  0  0
  121.8708  121.3412   86.2359 H   0  0  0  0  0  0  0  0  0  0  0  0
  123.2079  120.6302   85.2310 H   0  0  0  0  0  0  0  0  0  0  0  0
  122.2457  121.3225   88.5336 H   0  0  0  0  0  0  0  0  0  0  0  0
  123.7873  121.4011   90.4890 H   0  0  0  0  0  0  0  0  0  0  0  0
  126.2453  121.6237   90.1358 H   0  0  0  0  0  0  0  0  0  0  0  0
  127.1641  121.7629   87.8223 H   0  0  0  0  0  0  0  0  0  0  0  0
  125.6297  121.6847   85.8623 H   0  0  0  0  0  0  0  0  0  0  0  0
  1  2  1  0
  2  3  1  0
  3  4  1  0
  4  5  1  0
  5  6  2  0
  6  7  1  0
  7  8  2  0
  8  9  1  0
  9 10  2  0
  3 11  1  0
 11 12  2  0
 11 13  1  0
 13 14  1  0
 13 15  1  0
 13 16  1  0
 10  5  1  0
  1 17  1  0
  1 18  1  0
  1 19  1  0
  2 20  1  0
  2 21  1  0
  4 22  1  0
  4 23  1  0
  6 24  1  0
  7 25  1  0
  8 26  1  0
  9 27  1  0
 10 28  1  0
M  END
>  <loss>  (7) 
0.6860678195953369

>  <score>  (7) 
2.6019442081451416

$$$$
YIDIZQBWUATQEG-UHFFFAOYSA-N
     RDKit          3D

 28 28  0  0  0  0  0  0  0  0999 V2000
  127.0577  122.0800   85.6782 C   0  0  0  0  0  0  0  0  0  0  0  0
  125.9854  121.4476   84.8020 C   0  0  0  0  0  0  0  0  0  0  0  0
  124.6810  122.1164   84.9426 N   0  0  0  0  0  0  0  0  0  0  0  0
  124.4783  122.8982   86.1737 C   0  0  0  0  0  0  0  0  0  0  0  0
  123.5930  122.2199   87.1935 C   0  0  0  0  0  0  0  0  0  0  0  0
  124.1516  121.3870   88.1744 C   0  0  0  0  0  0  0  0  0  0  0  0
  123.3392  120.7727   89.1292 C   0  0  0  0  0  0  0  0  0  0  0  0
  121.9628  120.9883   89.1183 C   0  0  0  0  0  0  0  0  0  0  0  0
  121.3967  121.8195   88.1542 C   0  0  0  0  0  0  0  0  0  0  0  0
  122.2065  122.4349   87.1985 C   0  0  0  0  0  0  0  0  0  0  0  0
  123.8930  122.2085   83.7749 C   0  0  0  0  0  0  0  0  0  0  0  0
  123.2078  121.2248   83.4513 O   0  0  0  0  0  0  0  0  0  0  0  0
  123.8688  123.4995   82.8997 C   0  0  0  0  0  0  0  0  0  0  0  0
  124.8556  124.7739   83.6686 Cl  0  0  0  0  0  0  0  0  0  0  0  0
  122.1903  124.0281   82.6100 Cl  0  0  0  0  0  0  0  0  0  0  0  0
  124.6007  123.1643   81.2869 Cl  0  0  0  0  0  0  0  0  0  0  0  0
  126.8018  121.9291   86.7373 H   0  0  0  0  0  0  0  0  0  0  0  0
  128.0293  121.6103   85.4652 H   0  0  0  0  0  0  0  0  0  0  0  0
  127.1168  123.1575   85.4652 H   0  0  0  0  0  0  0  0  0  0  0  0
  126.3042  121.5120   83.7512 H   0  0  0  0  0  0  0  0  0  0  0  0
  125.8632  120.4024   85.1222 H   0  0  0  0  0  0  0  0  0  0  0  0
  125.4607  123.0792   86.6343 H   0  0  0  0  0  0  0  0  0  0  0  0
  123.9704  123.8287   85.8800 H   0  0  0  0  0  0  0  0  0  0  0  0
  125.2381  121.2165   88.1913 H   0  0  0  0  0  0  0  0  0  0  0  0
  123.7865  120.1175   89.8913 H   0  0  0  0  0  0  0  0  0  0  0  0
  121.3236  120.5026   89.8703 H   0  0  0  0  0  0  0  0  0  0  0  0
  120.3101  121.9909   88.1463 H   0  0  0  0  0  0  0  0  0  0  0  0
  121.7540  123.0940   86.4430 H   0  0  0  0  0  0  0  0  0  0  0  0
  1  2  1  0
  2  3  1  0
  3  4  1  0
  4  5  1  0
  5  6  2  0
  6  7  1  0
  7  8  2  0
  8  9  1  0
  9 10  2  0
  3 11  1  0
 11 12  2  0
 11 13  1  0
 13 14  1  0
 13 15  1  0
 13 16  1  0
 10  5  1  0
  1 17  1  0
  1 18  1  0
  1 19  1  0
  2 20  1  0
  2 21  1  0
  4 22  1  0
  4 23  1  0
  6 24  1  0
  7 25  1  0
  8 26  1  0
  9 27  1  0
 10 28  1  0
M  END
>  <loss>  (8) 
0.6712074875831604

>  <score>  (8) 
2.462160587310791

$$$$
YIDIZQBWUATQEG-UHFFFAOYSA-N
     RDKit          3D

 28 28  0  0  0  0  0  0  0  0999 V2000
  121.1999  124.0743   85.5775 C   0  0  0  0  0  0  0  0  0  0  0  0
  122.0224  122.8995   86.0881 C   0  0  0  0  0  0  0  0  0  0  0  0
  123.0722  122.4957   85.1377 N   0  0  0  0  0  0  0  0  0  0  0  0
  123.9354  121.3784   85.5554 C   0  0  0  0  0  0  0  0  0  0  0  0
  124.3608  121.4391   87.0042 C   0  0  0  0  0  0  0  0  0  0  0  0
  123.4198  121.2505   88.0274 C   0  0  0  0  0  0  0  0  0  0  0  0
  123.8119  121.2879   89.3668 C   0  0  0  0  0  0  0  0  0  0  0  0
  125.1472  121.5079   89.6979 C   0  0  0  0  0  0  0  0  0  0  0  0
  126.0928  121.6888   88.6910 C   0  0  0  0  0  0  0  0  0  0  0  0
  125.7035  121.6517   87.3511 C   0  0  0  0  0  0  0  0  0  0  0  0
  122.9505  122.9884   83.8203 C   0  0  0  0  0  0  0  0  0  0  0  0
  121.8517  122.8780   83.2525 O   0  0  0  0  0  0  0  0  0  0  0  0
  124.1496  123.6557   83.0787 C   0  0  0  0  0  0  0  0  0  0  0  0
  123.5909  124.3718   81.5411 Cl  0  0  0  0  0  0  0  0  0  0  0  0
  125.4683  122.4799   82.8358 Cl  0  0  0  0  0  0  0  0  0  0  0  0
  124.8199  124.9997   84.0755 Cl  0  0  0  0  0  0  0  0  0  0  0  0
  120.8023  124.6422   86.4315 H   0  0  0  0  0  0  0  0  0  0  0  0
  121.8373  124.7299   84.9660 H   0  0  0  0  0  0  0  0  0  0  0  0
  120.3658  123.6996   84.9660 H   0  0  0  0  0  0  0  0  0  0  0  0
  122.4970  123.1866   87.0380 H   0  0  0  0  0  0  0  0  0  0  0  0
  121.3421  122.0453   86.2202 H   0  0  0  0  0  0  0  0  0  0  0  0
  123.3867  120.4386   85.3950 H   0  0  0  0  0  0  0  0  0  0  0  0
  124.8526  121.4416   84.9514 H   0  0  0  0  0  0  0  0  0  0  0  0
  122.3649  121.0716   87.7725 H   0  0  0  0  0  0  0  0  0  0  0  0
  123.0654  121.1436   90.1618 H   0  0  0  0  0  0  0  0  0  0  0  0
  125.4546  121.5386   90.7536 H   0  0  0  0  0  0  0  0  0  0  0  0
  127.1473  121.8611   88.9521 H   0  0  0  0  0  0  0  0  0  0  0  0
  126.4557  121.7904   86.5606 H   0  0  0  0  0  0  0  0  0  0  0  0
  1  2  1  0
  2  3  1  0
  3  4  1  0
  4  5  1  0
  5  6  2  0
  6  7  1  0
  7  8  2  0
  8  9  1  0
  9 10  2  0
  3 11  1  0
 11 12  2  0
 11 13  1  0
 13 14  1  0
 13 15  1  0
 13 16  1  0
 10  5  1  0
  1 17  1  0
  1 18  1  0
  1 19  1  0
  2 20  1  0
  2 21  1  0
  4 22  1  0
  4 23  1  0
  6 24  1  0
  7 25  1  0
  8 26  1  0
  9 27  1  0
 10 28  1  0
M  END
>  <loss>  (9) 
0.6940197944641113

>  <score>  (9) 
2.5344150066375732

$$$$
YIDIZQBWUATQEG-UHFFFAOYSA-N
     RDKit          3D

 28 28  0  0  0  0  0  0  0  0999 V2000
  121.0238  124.2733   86.0876 C   0  0  0  0  0  0  0  0  0  0  0  0
  121.3496  122.8464   85.6704 C   0  0  0  0  0  0  0  0  0  0  0  0
  122.7447  122.6777   85.2353 N   0  0  0  0  0  0  0  0  0  0  0  0
  123.3981  121.4133   85.6076 C   0  0  0  0  0  0  0  0  0  0  0  0
  124.0948  121.4482   86.9479 C   0  0  0  0  0  0  0  0  0  0  0  0
  125.4679  121.7210   87.0353 C   0  0  0  0  0  0  0  0  0  0  0  0
  126.1101  121.7423   88.2746 C   0  0  0  0  0  0  0  0  0  0  0  0
  125.3893  121.4880   89.4391 C   0  0  0  0  0  0  0  0  0  0  0  0
  124.0260  121.2113   89.3664 C   0  0  0  0  0  0  0  0  0  0  0  0
  123.3816  121.1893   88.1282 C   0  0  0  0  0  0  0  0  0  0  0  0
  123.2482  123.6438   84.3404 C   0  0  0  0  0  0  0  0  0  0  0  0
  123.3072  124.8228   84.7263 O   0  0  0  0  0  0  0  0  0  0  0  0
  123.7166  123.2687   82.9009 C   0  0  0  0  0  0  0  0  0  0  0  0
  123.4788  124.6689   81.7907 Cl  0  0  0  0  0  0  0  0  0  0  0  0
  125.4567  122.8833   82.8927 Cl  0  0  0  0  0  0  0  0  0  0  0  0
  122.7262  121.9257   82.2632 Cl  0  0  0  0  0  0  0  0  0  0  0  0
  121.0086  124.3399   87.1855 H   0  0  0  0  0  0  0  0  0  0  0  0
  121.7893  124.9556   85.6894 H   0  0  0  0  0  0  0  0  0  0  0  0
  120.0380  124.5558   85.6894 H   0  0  0  0  0  0  0  0  0  0  0  0
  121.1668  122.1806   86.5267 H   0  0  0  0  0  0  0  0  0  0  0  0
  120.7061  122.5998   84.8130 H   0  0  0  0  0  0  0  0  0  0  0  0
  122.6319  120.6246   85.6374 H   0  0  0  0  0  0  0  0  0  0  0  0
  124.1749  121.2242   84.8521 H   0  0  0  0  0  0  0  0  0  0  0  0
  126.0436  121.9200   86.1194 H   0  0  0  0  0  0  0  0  0  0  0  0
  127.1868  121.9601   88.3315 H   0  0  0  0  0  0  0  0  0  0  0  0
  125.8962  121.5057   90.4152 H   0  0  0  0  0  0  0  0  0  0  0  0
  123.4565  121.0099   90.2857 H   0  0  0  0  0  0  0  0  0  0  0  0
  122.3055  120.9670   88.0774 H   0  0  0  0  0  0  0  0  0  0  0  0
  1  2  1  0
  2  3  1  0
  3  4  1  0
  4  5  1  0
  5  6  2  0
  6  7  1  0
  7  8  2  0
  8  9  1  0
  9 10  2  0
  3 11  1  0
 11 12  2  0
 11 13  1  0
 13 14  1  0
 13 15  1  0
 13 16  1  0
 10  5  1  0
  1 17  1  0
  1 18  1  0
  1 19  1  0
  2 20  1  0
  2 21  1  0
  4 22  1  0
  4 23  1  0
  6 24  1  0
  7 25  1  0
  8 26  1  0
  9 27  1  0
 10 28  1  0
M  END
>  <loss>  (10) 
0.6863653659820557

>  <score>  (10) 
2.471621036529541

$$$$
YIDIZQBWUATQEG-UHFFFAOYSA-N
     RDKit          3D

 28 28  0  0  0  0  0  0  0  0999 V2000
  121.0780  124.4033   85.8113 C   0  0  0  0  0  0  0  0  0  0  0  0
  121.3730  122.9512   85.4637 C   0  0  0  0  0  0  0  0  0  0  0  0
  122.7896  122.7108   85.1484 N   0  0  0  0  0  0  0  0  0  0  0  0
  123.3499  121.4250   85.5922 C   0  0  0  0  0  0  0  0  0  0  0  0
  123.9701  121.4628   86.9695 C   0  0  0  0  0  0  0  0  0  0  0  0
  125.3606  121.5577   87.1272 C   0  0  0  0  0  0  0  0  0  0  0  0
  125.9306  121.5821   88.4012 C   0  0  0  0  0  0  0  0  0  0  0  0
  125.1191  121.5085   89.5310 C   0  0  0  0  0  0  0  0  0  0  0  0
  123.7368  121.4096   89.3887 C   0  0  0  0  0  0  0  0  0  0  0  0
  123.1646  121.3848   88.1156 C   0  0  0  0  0  0  0  0  0  0  0  0
  123.4100  123.6359   84.2841 C   0  0  0  0  0  0  0  0  0  0  0  0
  123.5589  124.8015   84.6861 O   0  0  0  0  0  0  0  0  0  0  0  0
  123.8965  123.2332   82.8581 C   0  0  0  0  0  0  0  0  0  0  0  0
  123.9160  124.6793   81.7820 Cl  0  0  0  0  0  0  0  0  0  0  0  0
  125.5636  122.6060   82.9229 Cl  0  0  0  0  0  0  0  0  0  0  0  0
  122.7630  122.0595   82.1311 Cl  0  0  0  0  0  0  0  0  0  0  0  0
  121.0541  124.5210   86.9047 H   0  0  0  0  0  0  0  0  0  0  0  0
  121.8635  125.0481   85.3902 H   0  0  0  0  0  0  0  0  0  0  0  0
  120.1032  124.6904   85.3902 H   0  0  0  0  0  0  0  0  0  0  0  0
  121.0934  122.3219   86.3214 H   0  0  0  0  0  0  0  0  0  0  0  0
  120.7898  122.7037   84.5645 H   0  0  0  0  0  0  0  0  0  0  0  0
  122.5408  120.6798   85.5985 H   0  0  0  0  0  0  0  0  0  0  0  0
  124.1567  121.1717   84.8888 H   0  0  0  0  0  0  0  0  0  0  0  0
  126.0075  121.6134   86.2393 H   0  0  0  0  0  0  0  0  0  0  0  0
  127.0222  121.6595   88.5132 H   0  0  0  0  0  0  0  0  0  0  0  0
  125.5692  121.5285   90.5345 H   0  0  0  0  0  0  0  0  0  0  0  0
  123.0956  121.3509   90.2806 H   0  0  0  0  0  0  0  0  0  0  0  0
  122.0727  121.3033   88.0102 H   0  0  0  0  0  0  0  0  0  0  0  0
  1  2  1  0
  2  3  1  0
  3  4  1  0
  4  5  1  0
  5  6  2  0
  6  7  1  0
  7  8  2  0
  8  9  1  0
  9 10  2  0
  3 11  1  0
 11 12  2  0
 11 13  1  0
 13 14  1  0
 13 15  1  0
 13 16  1  0
 10  5  1  0
  1 17  1  0
  1 18  1  0
  1 19  1  0
  2 20  1  0
  2 21  1  0
  4 22  1  0
  4 23  1  0
  6 24  1  0
  7 25  1  0
  8 26  1  0
  9 27  1  0
 10 28  1  0
M  END
>  <loss>  (11) 
0.6902875900268555

>  <score>  (11) 
2.4075992107391357

$$$$
YIDIZQBWUATQEG-UHFFFAOYSA-N
     RDKit          3D

 28 28  0  0  0  0  0  0  0  0999 V2000
  121.2091  124.5911   85.7872 C   0  0  0  0  0  0  0  0  0  0  0  0
  121.3633  123.0851   85.6299 C   0  0  0  0  0  0  0  0  0  0  0  0
  122.7242  122.6828   85.2421 N   0  0  0  0  0  0  0  0  0  0  0  0
  123.1868  121.3771   85.7374 C   0  0  0  0  0  0  0  0  0  0  0  0
  123.9238  121.4409   87.0549 C   0  0  0  0  0  0  0  0  0  0  0  0
  125.3172  121.5971   87.0901 C   0  0  0  0  0  0  0  0  0  0  0  0
  125.9957  121.6453   88.3091 C   0  0  0  0  0  0  0  0  0  0  0  0
  125.2909  121.5347   89.5055 C   0  0  0  0  0  0  0  0  0  0  0  0
  123.9072  121.3748   89.4850 C   0  0  0  0  0  0  0  0  0  0  0  0
  123.2266  121.3260   88.2671 C   0  0  0  0  0  0  0  0  0  0  0  0
  123.3689  123.4842   84.2779 C   0  0  0  0  0  0  0  0  0  0  0  0
  123.7189  124.6288   84.6094 O   0  0  0  0  0  0  0  0  0  0  0  0
  123.6390  122.9736   82.8292 C   0  0  0  0  0  0  0  0  0  0  0  0
  123.9136  124.3709   81.7240 Cl  0  0  0  0  0  0  0  0  0  0  0  0
  125.1140  121.9739   82.7861 Cl  0  0  0  0  0  0  0  0  0  0  0  0
  122.2116  122.0949   82.2116 Cl  0  0  0  0  0  0  0  0  0  0  0  0
  121.1829  124.8473   86.8566 H   0  0  0  0  0  0  0  0  0  0  0  0
  122.0600  125.0987   85.3093 H   0  0  0  0  0  0  0  0  0  0  0  0
  120.2730  124.9157   85.3093 H   0  0  0  0  0  0  0  0  0  0  0  0
  121.1161  122.6057   86.5886 H   0  0  0  0  0  0  0  0  0  0  0  0
  120.6849  122.7678   84.8243 H   0  0  0  0  0  0  0  0  0  0  0  0
  122.3097  120.7254   85.8638 H   0  0  0  0  0  0  0  0  0  0  0  0
  123.9002  120.9915   84.9942 H   0  0  0  0  0  0  0  0  0  0  0  0
  125.8802  121.6823   86.1490 H   0  0  0  0  0  0  0  0  0  0  0  0
  127.0884  121.7709   88.3249 H   0  0  0  0  0  0  0  0  0  0  0  0
  125.8264  121.5735   90.4656 H   0  0  0  0  0  0  0  0  0  0  0  0
  123.3503  121.2869   90.4295 H   0  0  0  0  0  0  0  0  0  0  0  0
  122.1343  121.1964   88.2577 H   0  0  0  0  0  0  0  0  0  0  0  0
  1  2  1  0
  2  3  1  0
  3  4  1  0
  4  5  1  0
  5  6  2  0
  6  7  1  0
  7  8  2  0
  8  9  1  0
  9 10  2  0
  3 11  1  0
 11 12  2  0
 11 13  1  0
 13 14  1  0
 13 15  1  0
 13 16  1  0
 10  5  1  0
  1 17  1  0
  1 18  1  0
  1 19  1  0
  2 20  1  0
  2 21  1  0
  4 22  1  0
  4 23  1  0
  6 24  1  0
  7 25  1  0
  8 26  1  0
  9 27  1  0
 10 28  1  0
M  END
>  <loss>  (12) 
0.7035897970199585

>  <score>  (12) 
2.379859447479248

$$$$
YIDIZQBWUATQEG-UHFFFAOYSA-N
     RDKit          3D

 28 28  0  0  0  0  0  0  0  0999 V2000
  120.9977  124.4908   85.1311 C   0  0  0  0  0  0  0  0  0  0  0  0
  121.4432  123.0431   84.9712 C   0  0  0  0  0  0  0  0  0  0  0  0
  122.8987  122.9144   84.7977 N   0  0  0  0  0  0  0  0  0  0  0  0
  123.7300  123.4437   85.8900 C   0  0  0  0  0  0  0  0  0  0  0  0
  123.8671  122.4632   87.0326 C   0  0  0  0  0  0  0  0  0  0  0  0
  122.7314  121.9513   87.6775 C   0  0  0  0  0  0  0  0  0  0  0  0
  122.8627  121.0364   88.7238 C   0  0  0  0  0  0  0  0  0  0  0  0
  124.1283  120.6243   89.1365 C   0  0  0  0  0  0  0  0  0  0  0  0
  125.2640  121.1272   88.5053 C   0  0  0  0  0  0  0  0  0  0  0  0
  125.1351  122.0419   87.4593 C   0  0  0  0  0  0  0  0  0  0  0  0
  123.5634  122.2689   83.7366 C   0  0  0  0  0  0  0  0  0  0  0  0
  123.6491  121.0303   83.7627 O   0  0  0  0  0  0  0  0  0  0  0  0
  124.1651  123.0652   82.5377 C   0  0  0  0  0  0  0  0  0  0  0  0
  124.9657  124.5559   83.1000 Cl  0  0  0  0  0  0  0  0  0  0  0  0
  125.4288  122.0733   81.7154 Cl  0  0  0  0  0  0  0  0  0  0  0  0
  122.8941  123.3963   81.3281 Cl  0  0  0  0  0  0  0  0  0  0  0  0
  120.9225  124.7352   86.2009 H   0  0  0  0  0  0  0  0  0  0  0  0
  121.7329  125.1555   84.6539 H   0  0  0  0  0  0  0  0  0  0  0  0
  120.0161  124.6272   84.6539 H   0  0  0  0  0  0  0  0  0  0  0  0
  121.1444  122.4815   85.8685 H   0  0  0  0  0  0  0  0  0  0  0  0
  120.9634  122.6453   84.0648 H   0  0  0  0  0  0  0  0  0  0  0  0
  124.7316  123.6692   85.4951 H   0  0  0  0  0  0  0  0  0  0  0  0
  123.2390  124.3479   86.2792 H   0  0  0  0  0  0  0  0  0  0  0  0
  121.7298  122.2733   87.3564 H   0  0  0  0  0  0  0  0  0  0  0  0
  121.9660  120.6404   89.2230 H   0  0  0  0  0  0  0  0  0  0  0  0
  124.2305  119.9023   89.9600 H   0  0  0  0  0  0  0  0  0  0  0  0
  126.2632  120.8029   88.8318 H   0  0  0  0  0  0  0  0  0  0  0  0
  126.0355  122.4359   86.9652 H   0  0  0  0  0  0  0  0  0  0  0  0
  1  2  1  0
  2  3  1  0
  3  4  1  0
  4  5  1  0
  5  6  2  0
  6  7  1  0
  7  8  2  0
  8  9  1  0
  9 10  2  0
  3 11  1  0
 11 12  2  0
 11 13  1  0
 13 14  1  0
 13 15  1  0
 13 16  1  0
 10  5  1  0
  1 17  1  0
  1 18  1  0
  1 19  1  0
  2 20  1  0
  2 21  1  0
  4 22  1  0
  4 23  1  0
  6 24  1  0
  7 25  1  0
  8 26  1  0
  9 27  1  0
 10 28  1  0
M  END
>  <loss>  (13) 
0.6405922770500183

>  <score>  (13) 
1.9834866523742676

$$$$
YIDIZQBWUATQEG-UHFFFAOYSA-N
     RDKit          3D

 28 28  0  0  0  0  0  0  0  0999 V2000
  120.9563  124.4202   85.1158 C   0  0  0  0  0  0  0  0  0  0  0  0
  121.4512  122.9901   84.9440 C   0  0  0  0  0  0  0  0  0  0  0  0
  122.9139  122.9097   84.8056 N   0  0  0  0  0  0  0  0  0  0  0  0
  123.7007  123.4628   85.9190 C   0  0  0  0  0  0  0  0  0  0  0  0
  123.8688  122.4728   87.0492 C   0  0  0  0  0  0  0  0  0  0  0  0
  122.7500  121.9312   87.6994 C   0  0  0  0  0  0  0  0  0  0  0  0
  122.9100  121.0078   88.7341 C   0  0  0  0  0  0  0  0  0  0  0  0
  124.1877  120.6168   89.1299 C   0  0  0  0  0  0  0  0  0  0  0  0
  125.3068  121.1494   88.4933 C   0  0  0  0  0  0  0  0  0  0  0  0
  125.1491  122.0727   87.4588 C   0  0  0  0  0  0  0  0  0  0  0  0
  123.6249  122.2896   83.7596 C   0  0  0  0  0  0  0  0  0  0  0  0
  123.8497  121.0711   83.8424 O   0  0  0  0  0  0  0  0  0  0  0  0
  124.1087  123.0866   82.5089 C   0  0  0  0  0  0  0  0  0  0  0  0
  124.7283  124.6919   82.9761 Cl  0  0  0  0  0  0  0  0  0  0  0  0
  125.4731  122.2122   81.7148 Cl  0  0  0  0  0  0  0  0  0  0  0  0
  122.7907  123.1944   81.3090 Cl  0  0  0  0  0  0  0  0  0  0  0  0
  120.8754  124.6540   86.1877 H   0  0  0  0  0  0  0  0  0  0  0  0
  121.6668  125.1135   84.6420 H   0  0  0  0  0  0  0  0  0  0  0  0
  119.9693  124.5261   84.6420 H   0  0  0  0  0  0  0  0  0  0  0  0
  121.1480  122.4043   85.8244 H   0  0  0  0  0  0  0  0  0  0  0  0
  121.0069  122.5928   84.0195 H   0  0  0  0  0  0  0  0  0  0  0  0
  124.6958  123.7439   85.5437 H   0  0  0  0  0  0  0  0  0  0  0  0
  123.1592  124.3354   86.3132 H   0  0  0  0  0  0  0  0  0  0  0  0
  121.7390  122.2364   87.3916 H   0  0  0  0  0  0  0  0  0  0  0  0
  122.0265  120.5883   89.2376 H   0  0  0  0  0  0  0  0  0  0  0  0
  124.3126  119.8881   89.9444 H   0  0  0  0  0  0  0  0  0  0  0  0
  126.3155  120.8418   88.8065 H   0  0  0  0  0  0  0  0  0  0  0  0
  126.0365  122.4901   86.9605 H   0  0  0  0  0  0  0  0  0  0  0  0
  1  2  1  0
  2  3  1  0
  3  4  1  0
  4  5  1  0
  5  6  2  0
  6  7  1  0
  7  8  2  0
  8  9  1  0
  9 10  2  0
  3 11  1  0
 11 12  2  0
 11 13  1  0
 13 14  1  0
 13 15  1  0
 13 16  1  0
 10  5  1  0
  1 17  1  0
  1 18  1  0
  1 19  1  0
  2 20  1  0
  2 21  1  0
  4 22  1  0
  4 23  1  0
  6 24  1  0
  7 25  1  0
  8 26  1  0
  9 27  1  0
 10 28  1  0
M  END
>  <loss>  (14) 
0.640078604221344

>  <score>  (14) 
1.9769887924194336

$$$$
YIDIZQBWUATQEG-UHFFFAOYSA-N
     RDKit          3D

 28 28  0  0  0  0  0  0  0  0999 V2000
  120.9355  124.2619   85.1748 C   0  0  0  0  0  0  0  0  0  0  0  0
  121.4548  122.9332   84.6436 C   0  0  0  0  0  0  0  0  0  0  0  0
  122.9010  122.7676   84.8665 N   0  0  0  0  0  0  0  0  0  0  0  0
  123.4476  123.3843   86.0866 C   0  0  0  0  0  0  0  0  0  0  0  0
  123.8222  122.3910   87.1622 C   0  0  0  0  0  0  0  0  0  0  0  0
  122.8251  121.7411   87.9048 C   0  0  0  0  0  0  0  0  0  0  0  0
  123.1671  120.8362   88.9114 C   0  0  0  0  0  0  0  0  0  0  0  0
  124.5070  120.5757   89.1907 C   0  0  0  0  0  0  0  0  0  0  0  0
  125.5067  121.2204   88.4657 C   0  0  0  0  0  0  0  0  0  0  0  0
  125.1675  122.1256   87.4590 C   0  0  0  0  0  0  0  0  0  0  0  0
  123.6603  122.3248   83.7618 C   0  0  0  0  0  0  0  0  0  0  0  0
  123.8688  121.1063   83.6447 O   0  0  0  0  0  0  0  0  0  0  0  0
  124.2308  123.3202   82.7049 C   0  0  0  0  0  0  0  0  0  0  0  0
  123.7469  122.8032   81.0474 Cl  0  0  0  0  0  0  0  0  0  0  0  0
  126.0137  123.3260   82.7488 Cl  0  0  0  0  0  0  0  0  0  0  0  0
  123.5429  124.9470   82.9684 Cl  0  0  0  0  0  0  0  0  0  0  0  0
  120.9421  124.2449   86.2746 H   0  0  0  0  0  0  0  0  0  0  0  0
  121.5811  125.0774   84.8168 H   0  0  0  0  0  0  0  0  0  0  0  0
  119.9080  124.4235   84.8168 H   0  0  0  0  0  0  0  0  0  0  0  0
  120.9228  122.1164   85.1535 H   0  0  0  0  0  0  0  0  0  0  0  0
  121.2777  122.9129   83.5582 H   0  0  0  0  0  0  0  0  0  0  0  0
  124.3480  123.9537   85.8129 H   0  0  0  0  0  0  0  0  0  0  0  0
  122.6542  124.0216   86.5042 H   0  0  0  0  0  0  0  0  0  0  0  0
  121.7655  121.9462   87.6924 H   0  0  0  0  0  0  0  0  0  0  0  0
  122.3776  120.3283   89.4848 H   0  0  0  0  0  0  0  0  0  0  0  0
  124.7752  119.8614   89.9831 H   0  0  0  0  0  0  0  0  0  0  0  0
  126.5646  121.0158   88.6870 H   0  0  0  0  0  0  0  0  0  0  0  0
  125.9616  122.6351   86.8934 H   0  0  0  0  0  0  0  0  0  0  0  0
  1  2  1  0
  2  3  1  0
  3  4  1  0
  4  5  1  0
  5  6  2  0
  6  7  1  0
  7  8  2  0
  8  9  1  0
  9 10  2  0
  3 11  1  0
 11 12  2  0
 11 13  1  0
 13 14  1  0
 13 15  1  0
 13 16  1  0
 10  5  1  0
  1 17  1  0
  1 18  1  0
  1 19  1  0
  2 20  1  0
  2 21  1  0
  4 22  1  0
  4 23  1  0
  6 24  1  0
  7 25  1  0
  8 26  1  0
  9 27  1  0
 10 28  1  0
M  END
>  <loss>  (15) 
0.6440797448158264

>  <score>  (15) 
1.9608955383300781

$$$$
YIDIZQBWUATQEG-UHFFFAOYSA-N
     RDKit          3D

 28 28  0  0  0  0  0  0  0  0999 V2000
  120.9698  124.3043   85.1507 C   0  0  0  0  0  0  0  0  0  0  0  0
  121.4667  122.9582   84.6423 C   0  0  0  0  0  0  0  0  0  0  0  0
  122.9099  122.7722   84.8683 N   0  0  0  0  0  0  0  0  0  0  0  0
  123.4642  123.3886   86.0851 C   0  0  0  0  0  0  0  0  0  0  0  0
  123.8287  122.3963   87.1651 C   0  0  0  0  0  0  0  0  0  0  0  0
  122.8247  121.7475   87.8992 C   0  0  0  0  0  0  0  0  0  0  0  0
  123.1572  120.8435   88.9098 C   0  0  0  0  0  0  0  0  0  0  0  0
  124.4944  120.5830   89.2017 C   0  0  0  0  0  0  0  0  0  0  0  0
  125.5009  121.2267   88.4853 C   0  0  0  0  0  0  0  0  0  0  0  0
  125.1712  122.1309   87.4745 C   0  0  0  0  0  0  0  0  0  0  0  0
  123.6639  122.3106   83.7676 C   0  0  0  0  0  0  0  0  0  0  0  0
  123.8704  121.0901   83.6694 O   0  0  0  0  0  0  0  0  0  0  0  0
  124.2308  123.2880   82.6922 C   0  0  0  0  0  0  0  0  0  0  0  0
  123.6664  122.7950   81.0529 Cl  0  0  0  0  0  0  0  0  0  0  0  0
  126.0130  123.2280   82.6692 Cl  0  0  0  0  0  0  0  0  0  0  0  0
  123.6137  124.9381   82.9847 Cl  0  0  0  0  0  0  0  0  0  0  0  0
  120.9700  124.3036   86.2507 H   0  0  0  0  0  0  0  0  0  0  0  0
  121.6327  125.1020   84.7844 H   0  0  0  0  0  0  0  0  0  0  0  0
  119.9476  124.4799   84.7844 H   0  0  0  0  0  0  0  0  0  0  0  0
  120.9211  122.1593   85.1659 H   0  0  0  0  0  0  0  0  0  0  0  0
  121.2891  122.9225   83.5574 H   0  0  0  0  0  0  0  0  0  0  0  0
  124.3707  123.9467   85.8080 H   0  0  0  0  0  0  0  0  0  0  0  0
  122.6782  124.0366   86.5002 H   0  0  0  0  0  0  0  0  0  0  0  0
  121.7671  121.9525   87.6768 H   0  0  0  0  0  0  0  0  0  0  0  0
  122.3624  120.3364   89.4764 H   0  0  0  0  0  0  0  0  0  0  0  0
  124.7552  119.8695   89.9972 H   0  0  0  0  0  0  0  0  0  0  0  0
  126.5567  121.0221   88.7165 H   0  0  0  0  0  0  0  0  0  0  0  0
  125.9705  122.6397   86.9157 H   0  0  0  0  0  0  0  0  0  0  0  0
  1  2  1  0
  2  3  1  0
  3  4  1  0
  4  5  1  0
  5  6  2  0
  6  7  1  0
  7  8  2  0
  8  9  1  0
  9 10  2  0
  3 11  1  0
 11 12  2  0
 11 13  1  0
 13 14  1  0
 13 15  1  0
 13 16  1  0
 10  5  1  0
  1 17  1  0
  1 18  1  0
  1 19  1  0
  2 20  1  0
  2 21  1  0
  4 22  1  0
  4 23  1  0
  6 24  1  0
  7 25  1  0
  8 26  1  0
  9 27  1  0
 10 28  1  0
M  END
>  <loss>  (16) 
0.6450681090354919

>  <score>  (16) 
1.9557828903198242

$$$$
YIDIZQBWUATQEG-UHFFFAOYSA-N
     RDKit          3D

 28 28  0  0  0  0  0  0  0  0999 V2000
  121.2645  124.5148   85.0496 C   0  0  0  0  0  0  0  0  0  0  0  0
  121.5629  123.0232   85.1082 C   0  0  0  0  0  0  0  0  0  0  0  0
  122.9684  122.7203   84.7903 N   0  0  0  0  0  0  0  0  0  0  0  0
  123.9663  123.1277   85.7934 C   0  0  0  0  0  0  0  0  0  0  0  0
  124.0294  122.2209   87.0007 C   0  0  0  0  0  0  0  0  0  0  0  0
  122.8519  121.8291   87.6549 C   0  0  0  0  0  0  0  0  0  0  0  0
  122.9069  121.0061   88.7812 C   0  0  0  0  0  0  0  0  0  0  0  0
  124.1373  120.5711   89.2691 C   0  0  0  0  0  0  0  0  0  0  0  0
  125.3144  120.9594   88.6332 C   0  0  0  0  0  0  0  0  0  0  0  0
  125.2622  121.7823   87.5070 C   0  0  0  0  0  0  0  0  0  0  0  0
  123.2486  122.3703   83.4517 C   0  0  0  0  0  0  0  0  0  0  0  0
  122.5637  121.4794   82.9233 O   0  0  0  0  0  0  0  0  0  0  0  0
  124.3813  123.0702   82.6392 C   0  0  0  0  0  0  0  0  0  0  0  0
  125.8648  122.0463   82.6423 Cl  0  0  0  0  0  0  0  0  0  0  0  0
  124.8212  124.6264   83.3912 Cl  0  0  0  0  0  0  0  0  0  0  0  0
  123.8794  123.2605   80.9360 Cl  0  0  0  0  0  0  0  0  0  0  0  0
  121.1847  124.9133   86.0718 H   0  0  0  0  0  0  0  0  0  0  0  0
  122.0772  125.0307   84.5173 H   0  0  0  0  0  0  0  0  0  0  0  0
  120.3158  124.6783   84.5173 H   0  0  0  0  0  0  0  0  0  0  0  0
  121.3433  122.6584   86.1225 H   0  0  0  0  0  0  0  0  0  0  0  0
  120.9334  122.5249   84.3563 H   0  0  0  0  0  0  0  0  0  0  0  0
  124.9562  123.1344   85.3137 H   0  0  0  0  0  0  0  0  0  0  0  0
  123.6651  124.1212   86.1569 H   0  0  0  0  0  0  0  0  0  0  0  0
  121.8777  122.1731   87.2775 H   0  0  0  0  0  0  0  0  0  0  0  0
  121.9775  120.7006   89.2842 H   0  0  0  0  0  0  0  0  0  0  0  0
  124.1793  119.9214   90.1558 H   0  0  0  0  0  0  0  0  0  0  0  0
  126.2860  120.6172   89.0190 H   0  0  0  0  0  0  0  0  0  0  0  0
  126.1954  122.0895   87.0123 H   0  0  0  0  0  0  0  0  0  0  0  0
  1  2  1  0
  2  3  1  0
  3  4  1  0
  4  5  1  0
  5  6  2  0
  6  7  1  0
  7  8  2  0
  8  9  1  0
  9 10  2  0
  3 11  1  0
 11 12  2  0
 11 13  1  0
 13 14  1  0
 13 15  1  0
 13 16  1  0
 10  5  1  0
  1 17  1  0
  1 18  1  0
  1 19  1  0
  2 20  1  0
  2 21  1  0
  4 22  1  0
  4 23  1  0
  6 24  1  0
  7 25  1  0
  8 26  1  0
  9 27  1  0
 10 28  1  0
M  END
>  <loss>  (17) 
0.6601595878601074

>  <score>  (17) 
1.9361652135849

$$$$
YIDIZQBWUATQEG-UHFFFAOYSA-N
     RDKit          3D

 28 28  0  0  0  0  0  0  0  0999 V2000
  121.2272  124.4884   85.1257 C   0  0  0  0  0  0  0  0  0  0  0  0
  121.5292  122.9971   85.0784 C   0  0  0  0  0  0  0  0  0  0  0  0
  122.9476  122.7216   84.7946 N   0  0  0  0  0  0  0  0  0  0  0  0
  123.9142  123.1620   85.8142 C   0  0  0  0  0  0  0  0  0  0  0  0
  124.0149  122.2374   87.0053 C   0  0  0  0  0  0  0  0  0  0  0  0
  122.8557  121.8039   87.6657 C   0  0  0  0  0  0  0  0  0  0  0  0
  122.9451  120.9640   88.7773 C   0  0  0  0  0  0  0  0  0  0  0  0
  124.1920  120.5537   89.2442 C   0  0  0  0  0  0  0  0  0  0  0  0
  125.3512  120.9836   88.6020 C   0  0  0  0  0  0  0  0  0  0  0  0
  125.2645  121.8233   87.4906 C   0  0  0  0  0  0  0  0  0  0  0  0
  123.2645  122.3629   83.4665 C   0  0  0  0  0  0  0  0  0  0  0  0
  122.6056  121.4567   82.9311 O   0  0  0  0  0  0  0  0  0  0  0  0
  124.4058  123.0718   82.6739 C   0  0  0  0  0  0  0  0  0  0  0  0
  124.0508  123.0242   80.9074 Cl  0  0  0  0  0  0  0  0  0  0  0  0
  125.9562  122.2244   82.9164 Cl  0  0  0  0  0  0  0  0  0  0  0  0
  124.4950  124.7922   83.1445 Cl  0  0  0  0  0  0  0  0  0  0  0  0
  121.1609  124.8160   86.1737 H   0  0  0  0  0  0  0  0  0  0  0  0
  122.0315  125.0416   84.6188 H   0  0  0  0  0  0  0  0  0  0  0  0
  120.2710  124.6851   84.6188 H   0  0  0  0  0  0  0  0  0  0  0  0
  121.2705  122.5530   86.0510 H   0  0  0  0  0  0  0  0  0  0  0  0
  120.9325  122.5592   84.2646 H   0  0  0  0  0  0  0  0  0  0  0  0
  124.9063  123.2297   85.3440 H   0  0  0  0  0  0  0  0  0  0  0  0
  123.5580  124.1314   86.1929 H   0  0  0  0  0  0  0  0  0  0  0  0
  121.8685  122.1282   87.3048 H   0  0  0  0  0  0  0  0  0  0  0  0
  122.0299  120.6258   89.2852 H   0  0  0  0  0  0  0  0  0  0  0  0
  124.2612  119.8908   90.1193 H   0  0  0  0  0  0  0  0  0  0  0  0
  126.3358  120.6608   88.9713 H   0  0  0  0  0  0  0  0  0  0  0  0
  126.1836  122.1632   86.9908 H   0  0  0  0  0  0  0  0  0  0  0  0
  1  2  1  0
  2  3  1  0
  3  4  1  0
  4  5  1  0
  5  6  2  0
  6  7  1  0
  7  8  2  0
  8  9  1  0
  9 10  2  0
  3 11  1  0
 11 12  2  0
 11 13  1  0
 13 14  1  0
 13 15  1  0
 13 16  1  0
 10  5  1  0
  1 17  1  0
  1 18  1  0
  1 19  1  0
  2 20  1  0
  2 21  1  0
  4 22  1  0
  4 23  1  0
  6 24  1  0
  7 25  1  0
  8 26  1  0
  9 27  1  0
 10 28  1  0
M  END
>  <loss>  (18) 
0.658711314201355

>  <score>  (18) 
1.926429271697998

$$$$
YIDIZQBWUATQEG-UHFFFAOYSA-N
     RDKit          3D

 28 28  0  0  0  0  0  0  0  0999 V2000
  121.3481  123.7966   84.5204 C   0  0  0  0  0  0  0  0  0  0  0  0
  122.7399  124.3182   84.8496 C   0  0  0  0  0  0  0  0  0  0  0  0
  123.7751  123.2807   84.7066 N   0  0  0  0  0  0  0  0  0  0  0  0
  124.6723  123.0916   85.8586 C   0  0  0  0  0  0  0  0  0  0  0  0
  124.0791  122.2552   86.9687 C   0  0  0  0  0  0  0  0  0  0  0  0
  124.9093  121.4843   87.7960 C   0  0  0  0  0  0  0  0  0  0  0  0
  124.3671  120.7241   88.8339 C   0  0  0  0  0  0  0  0  0  0  0  0
  122.9923  120.7307   89.0600 C   0  0  0  0  0  0  0  0  0  0  0  0
  122.1579  121.4982   88.2504 C   0  0  0  0  0  0  0  0  0  0  0  0
  122.6974  122.2591   87.2122 C   0  0  0  0  0  0  0  0  0  0  0  0
  123.6109  122.3722   83.6386 C   0  0  0  0  0  0  0  0  0  0  0  0
  122.8099  121.4347   83.7846 O   0  0  0  0  0  0  0  0  0  0  0  0
  124.4038  122.5216   82.3036 C   0  0  0  0  0  0  0  0  0  0  0  0
  125.5497  123.8858   82.4264 Cl  0  0  0  0  0  0  0  0  0  0  0  0
  123.2841  122.7024   80.9274 Cl  0  0  0  0  0  0  0  0  0  0  0  0
  125.3793  121.0373   81.9968 Cl  0  0  0  0  0  0  0  0  0  0  0  0
  120.8029  123.5923   85.4537 H   0  0  0  0  0  0  0  0  0  0  0  0
  120.8027  124.5513   83.9348 H   0  0  0  0  0  0  0  0  0  0  0  0
  121.4331  122.8693   83.9348 H   0  0  0  0  0  0  0  0  0  0  0  0
  122.9760  125.1494   84.1690 H   0  0  0  0  0  0  0  0  0  0  0  0
  122.7360  124.6464   85.8995 H   0  0  0  0  0  0  0  0  0  0  0  0
  125.5894  122.5975   85.5053 H   0  0  0  0  0  0  0  0  0  0  0  0
  124.8644  124.0895   86.2797 H   0  0  0  0  0  0  0  0  0  0  0  0
  125.9960  121.4787   87.6256 H   0  0  0  0  0  0  0  0  0  0  0  0
  125.0261  120.1193   89.4740 H   0  0  0  0  0  0  0  0  0  0  0  0
  122.5661  120.1302   89.8772 H   0  0  0  0  0  0  0  0  0  0  0  0
  121.0726  121.5045   88.4296 H   0  0  0  0  0  0  0  0  0  0  0  0
  122.0338  122.8669   86.5796 H   0  0  0  0  0  0  0  0  0  0  0  0
  1  2  1  0
  2  3  1  0
  3  4  1  0
  4  5  1  0
  5  6  2  0
  6  7  1  0
  7  8  2  0
  8  9  1  0
  9 10  2  0
  3 11  1  0
 11 12  2  0
 11 13  1  0
 13 14  1  0
 13 15  1  0
 13 16  1  0
 10  5  1  0
  1 17  1  0
  1 18  1  0
  1 19  1  0
  2 20  1  0
  2 21  1  0
  4 22  1  0
  4 23  1  0
  6 24  1  0
  7 25  1  0
  8 26  1  0
  9 27  1  0
 10 28  1  0
M  END
>  <loss>  (19) 
0.6801653504371643

>  <score>  (19) 
2.003304958343506

$$$$
YIDIZQBWUATQEG-UHFFFAOYSA-N
     RDKit          3D

 28 28  0  0  0  0  0  0  0  0999 V2000
  121.1858  124.4642   85.3014 C   0  0  0  0  0  0  0  0  0  0  0  0
  121.4937  122.9760   85.2115 C   0  0  0  0  0  0  0  0  0  0  0  0
  122.8961  122.7153   84.8458 N   0  0  0  0  0  0  0  0  0  0  0  0
  123.9141  123.1409   85.8206 C   0  0  0  0  0  0  0  0  0  0  0  0
  124.0508  122.2175   87.0091 C   0  0  0  0  0  0  0  0  0  0  0  0
  122.9111  121.7732   87.6959 C   0  0  0  0  0  0  0  0  0  0  0  0
  123.0339  120.9345   88.8051 C   0  0  0  0  0  0  0  0  0  0  0  0
  124.2950  120.5359   89.2433 C   0  0  0  0  0  0  0  0  0  0  0  0
  125.4350  120.9765   88.5747 C   0  0  0  0  0  0  0  0  0  0  0  0
  125.3150  121.8152   87.4656 C   0  0  0  0  0  0  0  0  0  0  0  0
  123.1425  122.3856   83.4955 C   0  0  0  0  0  0  0  0  0  0  0  0
  122.4310  121.5171   82.9650 O   0  0  0  0  0  0  0  0  0  0  0  0
  124.2709  123.0806   82.6727 C   0  0  0  0  0  0  0  0  0  0  0  0
  123.8027  123.1659   80.9342 Cl  0  0  0  0  0  0  0  0  0  0  0  0
  125.7812  122.1360   82.7594 Cl  0  0  0  0  0  0  0  0  0  0  0  0
  124.4905  124.7598   83.2395 Cl  0  0  0  0  0  0  0  0  0  0  0  0
  121.1241  124.7626   86.3584 H   0  0  0  0  0  0  0  0  0  0  0  0
  121.9850  125.0345   84.8055 H   0  0  0  0  0  0  0  0  0  0  0  0
  120.2260  124.6707   84.8055 H   0  0  0  0  0  0  0  0  0  0  0  0
  121.2913  122.5135   86.1887 H   0  0  0  0  0  0  0  0  0  0  0  0
  120.8560  122.5481   84.4239 H   0  0  0  0  0  0  0  0  0  0  0  0
  124.8857  123.1899   85.3071 H   0  0  0  0  0  0  0  0  0  0  0  0
  123.5921  124.1174   86.2115 H   0  0  0  0  0  0  0  0  0  0  0  0
  121.9129  122.0882   87.3578 H   0  0  0  0  0  0  0  0  0  0  0  0
  122.1338  120.5877   89.3339 H   0  0  0  0  0  0  0  0  0  0  0  0
  124.3904  119.8739   90.1166 H   0  0  0  0  0  0  0  0  0  0  0  0
  126.4308  120.6631   88.9214 H   0  0  0  0  0  0  0  0  0  0  0  0
  126.2192  122.1637   86.9449 H   0  0  0  0  0  0  0  0  0  0  0  0
  1  2  1  0
  2  3  1  0
  3  4  1  0
  4  5  1  0
  5  6  2  0
  6  7  1  0
  7  8  2  0
  8  9  1  0
  9 10  2  0
  3 11  1  0
 11 12  2  0
 11 13  1  0
 13 14  1  0
 13 15  1  0
 13 16  1  0
 10  5  1  0
  1 17  1  0
  1 18  1  0
  1 19  1  0
  2 20  1  0
  2 21  1  0
  4 22  1  0
  4 23  1  0
  6 24  1  0
  7 25  1  0
  8 26  1  0
  9 27  1  0
 10 28  1  0
M  END
>  <loss>  (20) 
0.6681697368621826

>  <score>  (20) 
1.9300951957702637

$$$$
YIDIZQBWUATQEG-UHFFFAOYSA-N
     RDKit          3D

 28 28  0  0  0  0  0  0  0  0999 V2000
  121.0893  124.4802   85.1406 C   0  0  0  0  0  0  0  0  0  0  0  0
  121.6122  123.0781   85.4239 C   0  0  0  0  0  0  0  0  0  0  0  0
  122.9291  122.8312   84.8158 N   0  0  0  0  0  0  0  0  0  0  0  0
  124.0954  123.0577   85.6835 C   0  0  0  0  0  0  0  0  0  0  0  0
  124.0489  122.2148   86.9377 C   0  0  0  0  0  0  0  0  0  0  0  0
  122.8233  121.8926   87.5393 C   0  0  0  0  0  0  0  0  0  0  0  0
  122.7847  121.1033   88.6901 C   0  0  0  0  0  0  0  0  0  0  0  0
  123.9685  120.6287   89.2516 C   0  0  0  0  0  0  0  0  0  0  0  0
  125.1923  120.9437   88.6646 C   0  0  0  0  0  0  0  0  0  0  0  0
  125.2332  121.7327   87.5142 C   0  0  0  0  0  0  0  0  0  0  0  0
  123.1755  122.3277   83.5234 C   0  0  0  0  0  0  0  0  0  0  0  0
  122.5193  121.3457   83.1396 O   0  0  0  0  0  0  0  0  0  0  0  0
  124.2242  122.9825   82.5722 C   0  0  0  0  0  0  0  0  0  0  0  0
  125.3918  121.7719   81.9804 Cl  0  0  0  0  0  0  0  0  0  0  0  0
  123.3951  123.6605   81.1196 Cl  0  0  0  0  0  0  0  0  0  0  0  0
  125.0263  124.3471   83.3982 Cl  0  0  0  0  0  0  0  0  0  0  0  0
  120.8960  124.9986   86.0913 H   0  0  0  0  0  0  0  0  0  0  0  0
  121.8387  125.0412   84.5629 H   0  0  0  0  0  0  0  0  0  0  0  0
  120.1556  124.4136   84.5629 H   0  0  0  0  0  0  0  0  0  0  0  0
  121.6969  122.9471   86.5128 H   0  0  0  0  0  0  0  0  0  0  0  0
  120.9024  122.3626   84.9830 H   0  0  0  0  0  0  0  0  0  0  0  0
  125.0079  122.8074   85.1225 H   0  0  0  0  0  0  0  0  0  0  0  0
  124.0886  124.1148   85.9877 H   0  0  0  0  0  0  0  0  0  0  0  0
  121.8856  122.2647   87.1009 H   0  0  0  0  0  0  0  0  0  0  0  0
  121.8186  120.8558   89.1543 H   0  0  0  0  0  0  0  0  0  0  0  0
  123.9369  120.0058   90.1576 H   0  0  0  0  0  0  0  0  0  0  0  0
  126.1269  120.5702   89.1084 H   0  0  0  0  0  0  0  0  0  0  0  0
  126.2023  121.9785   87.0557 H   0  0  0  0  0  0  0  0  0  0  0  0
  1  2  1  0
  2  3  1  0
  3  4  1  0
  4  5  1  0
  5  6  2  0
  6  7  1  0
  7  8  2  0
  8  9  1  0
  9 10  2  0
  3 11  1  0
 11 12  2  0
 11 13  1  0
 13 14  1  0
 13 15  1  0
 13 16  1  0
 10  5  1  0
  1 17  1  0
  1 18  1  0
  1 19  1  0
  2 20  1  0
  2 21  1  0
  4 22  1  0
  4 23  1  0
  6 24  1  0
  7 25  1  0
  8 26  1  0
  9 27  1  0
 10 28  1  0
M  END
>  <loss>  (21) 
0.674795925617218

>  <score>  (21) 
1.928822636604309

$$$$
YIDIZQBWUATQEG-UHFFFAOYSA-N
     RDKit          3D

 28 28  0  0  0  0  0  0  0  0999 V2000
  121.1355  123.6312   84.5180 C   0  0  0  0  0  0  0  0  0  0  0  0
  122.4970  124.2300   84.8410 C   0  0  0  0  0  0  0  0  0  0  0  0
  123.5948  123.2568   84.7321 N   0  0  0  0  0  0  0  0  0  0  0  0
  124.5180  123.1808   85.8749 C   0  0  0  0  0  0  0  0  0  0  0  0
  124.0283  122.3110   87.0091 C   0  0  0  0  0  0  0  0  0  0  0  0
  122.6684  122.2772   87.3511 C   0  0  0  0  0  0  0  0  0  0  0  0
  122.2212  121.4801   88.4062 C   0  0  0  0  0  0  0  0  0  0  0  0
  123.1270  120.7111   89.1332 C   0  0  0  0  0  0  0  0  0  0  0  0
  124.4811  120.7386   88.8071 C   0  0  0  0  0  0  0  0  0  0  0  0
  124.9306  121.5352   87.7524 C   0  0  0  0  0  0  0  0  0  0  0  0
  123.5376  122.3594   83.6462 C   0  0  0  0  0  0  0  0  0  0  0  0
  122.7498  121.4022   83.7205 O   0  0  0  0  0  0  0  0  0  0  0  0
  124.4323  122.5384   82.3813 C   0  0  0  0  0  0  0  0  0  0  0  0
  125.6833  121.2418   82.3226 Cl  0  0  0  0  0  0  0  0  0  0  0  0
  123.4531  122.3890   80.8996 Cl  0  0  0  0  0  0  0  0  0  0  0  0
  125.3020  124.0968   82.4597 Cl  0  0  0  0  0  0  0  0  0  0  0  0
  120.6060  123.3984   85.4537 H   0  0  0  0  0  0  0  0  0  0  0  0
  120.5467  124.3535   83.9335 H   0  0  0  0  0  0  0  0  0  0  0  0
  121.2698  122.7091   83.9335 H   0  0  0  0  0  0  0  0  0  0  0  0
  122.6910  125.0566   84.1417 H   0  0  0  0  0  0  0  0  0  0  0  0
  122.4652  124.5737   85.8855 H   0  0  0  0  0  0  0  0  0  0  0  0
  125.4763  122.7754   85.5180 H   0  0  0  0  0  0  0  0  0  0  0  0
  124.6100  124.2011   86.2756 H   0  0  0  0  0  0  0  0  0  0  0  0
  121.9481  122.8840   86.7829 H   0  0  0  0  0  0  0  0  0  0  0  0
  121.1520  121.4592   88.6639 H   0  0  0  0  0  0  0  0  0  0  0  0
  122.7735  120.0828   89.9640 H   0  0  0  0  0  0  0  0  0  0  0  0
  125.1969  120.1320   89.3812 H   0  0  0  0  0  0  0  0  0  0  0  0
  126.0016  121.5548   87.5020 H   0  0  0  0  0  0  0  0  0  0  0  0
  1  2  1  0
  2  3  1  0
  3  4  1  0
  4  5  1  0
  5  6  2  0
  6  7  1  0
  7  8  2  0
  8  9  1  0
  9 10  2  0
  3 11  1  0
 11 12  2  0
 11 13  1  0
 13 14  1  0
 13 15  1  0
 13 16  1  0
 10  5  1  0
  1 17  1  0
  1 18  1  0
  1 19  1  0
  2 20  1  0
  2 21  1  0
  4 22  1  0
  4 23  1  0
  6 24  1  0
  7 25  1  0
  8 26  1  0
  9 27  1  0
 10 28  1  0
M  END
>  <loss>  (22) 
0.6851650476455688

>  <score>  (22) 
1.9737048149108887

$$$$
YIDIZQBWUATQEG-UHFFFAOYSA-N
     RDKit          3D

 28 28  0  0  0  0  0  0  0  0999 V2000
  121.1825  123.8068   84.0184 C   0  0  0  0  0  0  0  0  0  0  0  0
  122.2611  123.9898   85.0765 C   0  0  0  0  0  0  0  0  0  0  0  0
  123.4717  123.1985   84.8079 N   0  0  0  0  0  0  0  0  0  0  0  0
  124.4772  123.1557   85.8810 C   0  0  0  0  0  0  0  0  0  0  0  0
  124.0958  122.2801   87.0517 C   0  0  0  0  0  0  0  0  0  0  0  0
  122.7545  122.1450   87.4389 C   0  0  0  0  0  0  0  0  0  0  0  0
  122.4070  121.3432   88.5275 C   0  0  0  0  0  0  0  0  0  0  0  0
  123.3949  120.6706   89.2430 C   0  0  0  0  0  0  0  0  0  0  0  0
  124.7314  120.7994   88.8720 C   0  0  0  0  0  0  0  0  0  0  0  0
  125.0813  121.6009   87.7839 C   0  0  0  0  0  0  0  0  0  0  0  0
  123.4601  122.4017   83.6449 C   0  0  0  0  0  0  0  0  0  0  0  0
  122.6823  121.4341   83.6077 O   0  0  0  0  0  0  0  0  0  0  0  0
  124.3921  122.7018   82.4310 C   0  0  0  0  0  0  0  0  0  0  0  0
  125.6809  121.4466   82.3180 Cl  0  0  0  0  0  0  0  0  0  0  0  0
  123.4689  122.6433   80.9075 Cl  0  0  0  0  0  0  0  0  0  0  0  0
  125.2137  124.2713   82.6609 Cl  0  0  0  0  0  0  0  0  0  0  0  0
  120.2118  123.6420   84.5090 H   0  0  0  0  0  0  0  0  0  0  0  0
  121.1278  124.7085   83.3908 H   0  0  0  0  0  0  0  0  0  0  0  0
  121.4284  122.9375   83.3908 H   0  0  0  0  0  0  0  0  0  0  0  0
  122.5389  125.0535   85.1132 H   0  0  0  0  0  0  0  0  0  0  0  0
  121.8456  123.6401   86.0331 H   0  0  0  0  0  0  0  0  0  0  0  0
  125.4181  122.7748   85.4572 H   0  0  0  0  0  0  0  0  0  0  0  0
  124.5693  124.1808   86.2693 H   0  0  0  0  0  0  0  0  0  0  0  0
  121.9695  122.6755   86.8799 H   0  0  0  0  0  0  0  0  0  0  0  0
  121.3515  121.2423   88.8206 H   0  0  0  0  0  0  0  0  0  0  0  0
  123.1200  120.0385   90.1002 H   0  0  0  0  0  0  0  0  0  0  0  0
  125.5120  120.2689   89.4370 H   0  0  0  0  0  0  0  0  0  0  0  0
  126.1388  121.7008   87.4980 H   0  0  0  0  0  0  0  0  0  0  0  0
  1  2  1  0
  2  3  1  0
  3  4  1  0
  4  5  1  0
  5  6  2  0
  6  7  1  0
  7  8  2  0
  8  9  1  0
  9 10  2  0
  3 11  1  0
 11 12  2  0
 11 13  1  0
 13 14  1  0
 13 15  1  0
 13 16  1  0
 10  5  1  0
  1 17  1  0
  1 18  1  0
  1 19  1  0
  2 20  1  0
  2 21  1  0
  4 22  1  0
  4 23  1  0
  6 24  1  0
  7 25  1  0
  8 26  1  0
  9 27  1  0
 10 28  1  0
M  END
>  <loss>  (23) 
0.6831729412078857

>  <score>  (23) 
1.8802318572998047

$$$$
YIDIZQBWUATQEG-UHFFFAOYSA-N
     RDKit          3D

 28 28  0  0  0  0  0  0  0  0999 V2000
  121.9607  125.1097   84.8139 C   0  0  0  0  0  0  0  0  0  0  0  0
  121.9533  123.6139   85.1007 C   0  0  0  0  0  0  0  0  0  0  0  0
  123.1852  122.9453   84.6529 N   0  0  0  0  0  0  0  0  0  0  0  0
  124.2812  122.8844   85.6324 C   0  0  0  0  0  0  0  0  0  0  0  0
  123.8835  122.1500   86.8926 C   0  0  0  0  0  0  0  0  0  0  0  0
  122.5556  122.1700   87.3445 C   0  0  0  0  0  0  0  0  0  0  0  0
  122.1906  121.4799   88.5019 C   0  0  0  0  0  0  0  0  0  0  0  0
  123.1471  120.7640   89.2191 C   0  0  0  0  0  0  0  0  0  0  0  0
  124.4697  120.7383   88.7817 C   0  0  0  0  0  0  0  0  0  0  0  0
  124.8368  121.4275   87.6251 C   0  0  0  0  0  0  0  0  0  0  0  0
  123.3860  122.2948   83.4196 C   0  0  0  0  0  0  0  0  0  0  0  0
  124.5377  121.9360   83.1244 O   0  0  0  0  0  0  0  0  0  0  0  0
  122.2055  122.0015   82.4430 C   0  0  0  0  0  0  0  0  0  0  0  0
  120.7653  122.9584   82.8781 Cl  0  0  0  0  0  0  0  0  0  0  0  0
  122.6638  122.4830   80.7652 Cl  0  0  0  0  0  0  0  0  0  0  0  0
  121.8664  120.2488   82.4076 Cl  0  0  0  0  0  0  0  0  0  0  0  0
  121.9635  125.6650   85.7634 H   0  0  0  0  0  0  0  0  0  0  0  0
  122.8602  125.3676   84.2356 H   0  0  0  0  0  0  0  0  0  0  0  0
  121.0639  125.3766   84.2356 H   0  0  0  0  0  0  0  0  0  0  0  0
  121.8452  123.4637   86.1850 H   0  0  0  0  0  0  0  0  0  0  0  0
  121.1135  123.1723   84.5440 H   0  0  0  0  0  0  0  0  0  0  0  0
  125.1362  122.3649   85.1750 H   0  0  0  0  0  0  0  0  0  0  0  0
  124.5412  123.9161   85.9116 H   0  0  0  0  0  0  0  0  0  0  0  0
  121.7963  122.7338   86.7828 H   0  0  0  0  0  0  0  0  0  0  0  0
  121.1467  121.5013   88.8480 H   0  0  0  0  0  0  0  0  0  0  0  0
  122.8581  120.2194   90.1301 H   0  0  0  0  0  0  0  0  0  0  0  0
  125.2251  120.1742   89.3484 H   0  0  0  0  0  0  0  0  0  0  0  0
  125.8826  121.4040   87.2850 H   0  0  0  0  0  0  0  0  0  0  0  0
  1  2  1  0
  2  3  1  0
  3  4  1  0
  4  5  1  0
  5  6  2  0
  6  7  1  0
  7  8  2  0
  8  9  1  0
  9 10  2  0
  3 11  1  0
 11 12  2  0
 11 13  1  0
 13 14  1  0
 13 15  1  0
 13 16  1  0
 10  5  1  0
  1 17  1  0
  1 18  1  0
  1 19  1  0
  2 20  1  0
  2 21  1  0
  4 22  1  0
  4 23  1  0
  6 24  1  0
  7 25  1  0
  8 26  1  0
  9 27  1  0
 10 28  1  0
M  END
>  <loss>  (24) 
0.7172454595565796

>  <score>  (24) 
2.0441665649414062

$$$$
YIDIZQBWUATQEG-UHFFFAOYSA-N
     RDKit          3D

 28 28  0  0  0  0  0  0  0  0999 V2000
  121.9942  125.1365   84.8785 C   0  0  0  0  0  0  0  0  0  0  0  0
  121.9685  123.6279   85.0861 C   0  0  0  0  0  0  0  0  0  0  0  0
  123.2126  122.9748   84.6492 N   0  0  0  0  0  0  0  0  0  0  0  0
  124.2732  122.8592   85.6623 C   0  0  0  0  0  0  0  0  0  0  0  0
  123.8083  122.1208   86.8969 C   0  0  0  0  0  0  0  0  0  0  0  0
  122.4656  122.1733   87.2999 C   0  0  0  0  0  0  0  0  0  0  0  0
  122.0385  121.4794   88.4335 C   0  0  0  0  0  0  0  0  0  0  0  0
  122.9471  120.7274   89.1756 C   0  0  0  0  0  0  0  0  0  0  0  0
  124.2838  120.6692   88.7868 C   0  0  0  0  0  0  0  0  0  0  0  0
  124.7129  121.3621   87.6540 C   0  0  0  0  0  0  0  0  0  0  0  0
  123.4541  122.3848   83.3930 C   0  0  0  0  0  0  0  0  0  0  0  0
  124.6177  122.0535   83.1126 O   0  0  0  0  0  0  0  0  0  0  0  0
  122.3035  122.1237   82.3726 C   0  0  0  0  0  0  0  0  0  0  0  0
  121.0331  123.3669   82.5121 Cl  0  0  0  0  0  0  0  0  0  0  0  0
  122.9443  122.2202   80.6882 Cl  0  0  0  0  0  0  0  0  0  0  0  0
  121.6597  120.4727   82.5910 Cl  0  0  0  0  0  0  0  0  0  0  0  0
  122.0028  125.6410   85.8560 H   0  0  0  0  0  0  0  0  0  0  0  0
  122.8972  125.4137   84.3149 H   0  0  0  0  0  0  0  0  0  0  0  0
  121.1012  125.4443   84.3149 H   0  0  0  0  0  0  0  0  0  0  0  0
  121.8198  123.4221   86.1564 H   0  0  0  0  0  0  0  0  0  0  0  0
  121.1476  123.2219   84.4768 H   0  0  0  0  0  0  0  0  0  0  0  0
  125.1234  122.3159   85.2241 H   0  0  0  0  0  0  0  0  0  0  0  0
  124.5607  123.8765   85.9665 H   0  0  0  0  0  0  0  0  0  0  0  0
  121.7439  122.7656   86.7183 H   0  0  0  0  0  0  0  0  0  0  0  0
  120.9835  121.5264   88.7413 H   0  0  0  0  0  0  0  0  0  0  0  0
  122.6092  120.1800   90.0679 H   0  0  0  0  0  0  0  0  0  0  0  0
  125.0014  120.0767   89.3733 H   0  0  0  0  0  0  0  0  0  0  0  0
  125.7696  121.3129   87.3523 H   0  0  0  0  0  0  0  0  0  0  0  0
  1  2  1  0
  2  3  1  0
  3  4  1  0
  4  5  1  0
  5  6  2  0
  6  7  1  0
  7  8  2  0
  8  9  1  0
  9 10  2  0
  3 11  1  0
 11 12  2  0
 11 13  1  0
 13 14  1  0
 13 15  1  0
 13 16  1  0
 10  5  1  0
  1 17  1  0
  1 18  1  0
  1 19  1  0
  2 20  1  0
  2 21  1  0
  4 22  1  0
  4 23  1  0
  6 24  1  0
  7 25  1  0
  8 26  1  0
  9 27  1  0
 10 28  1  0
M  END
>  <loss>  (25) 
0.7320392727851868

>  <score>  (25) 
1.9648840427398682

$$$$
