YORSTRKUMCJZFJ-UHFFFAOYSA-N
     RDKit          3D

 25 25  0  0  0  0  0  0  0  0999 V2000
  119.2728  122.5458   86.7505 O   0  0  0  0  0  0  0  0  0  0  0  0
  120.2496  123.0228   86.1683 C   0  0  0  0  0  0  0  0  0  0  0  0
  121.4926  123.0591   86.7968 N   0  0  0  0  0  0  0  0  0  0  0  0
  121.6313  122.8613   88.2297 C   0  0  0  0  0  0  0  0  0  0  0  0
  122.1971  121.4834   88.5942 C   0  0  0  0  0  0  0  0  0  0  0  0
  123.7062  121.4312   88.5101 C   0  0  0  0  0  0  0  0  0  0  0  0
  124.3363  121.0728   87.3081 C   0  0  0  0  0  0  0  0  0  0  0  0
  125.7287  121.0497   87.2217 C   0  0  0  0  0  0  0  0  0  0  0  0
  126.4900  121.3809   88.3355 C   0  0  0  0  0  0  0  0  0  0  0  0
  127.8266  121.3591   88.2518 F   0  0  0  0  0  0  0  0  0  0  0  0
  125.8855  121.7347   89.5356 C   0  0  0  0  0  0  0  0  0  0  0  0
  124.4931  121.7605   89.6247 C   0  0  0  0  0  0  0  0  0  0  0  0
  120.1850  123.6611   84.7537 C   0  0  0  0  0  0  0  0  0  0  0  0
  118.7969  123.0242   83.8423 Cl  0  0  0  0  0  0  0  0  0  0  0  0
  121.6919  123.2828   83.8630 Cl  0  0  0  0  0  0  0  0  0  0  0  0
  120.0375  125.4258   84.9558 Cl  0  0  0  0  0  0  0  0  0  0  0  0
  122.3358  123.2307   86.2306 H   0  0  0  0  0  0  0  0  0  0  0  0
  122.3071  123.6334   88.6260 H   0  0  0  0  0  0  0  0  0  0  0  0
  120.6253  122.9298   88.6693 H   0  0  0  0  0  0  0  0  0  0  0  0
  121.8933  121.2392   89.6229 H   0  0  0  0  0  0  0  0  0  0  0  0
  121.7987  120.7583   87.8694 H   0  0  0  0  0  0  0  0  0  0  0  0
  123.7292  120.8089   86.4296 H   0  0  0  0  0  0  0  0  0  0  0  0
  126.2203  120.7710   86.2780 H   0  0  0  0  0  0  0  0  0  0  0  0
  126.5008  121.9929   90.4102 H   0  0  0  0  0  0  0  0  0  0  0  0
  124.0102  122.0401   90.5726 H   0  0  0  0  0  0  0  0  0  0  0  0
  1  2  2  0
  2  3  1  0
  3  4  1  0
  4  5  1  0
  5  6  1  0
  6  7  2  0
  7  8  1  0
  8  9  2  0
  9 10  1  0
  9 11  1  0
 11 12  2  0
  2 13  1  0
 13 14  1  0
 13 15  1  0
 13 16  1  0
 12  6  1  0
  3 17  1  0
  4 18  1  0
  4 19  1  0
  5 20  1  0
  5 21  1  0
  7 22  1  0
  8 23  1  0
 11 24  1  0
 12 25  1  0
M  END
>  <loss>  (1) 
0.4441540539264679

>  <score>  (1) 
6.754981994628906

$$$$
YORSTRKUMCJZFJ-UHFFFAOYSA-N
     RDKit          3D

 25 25  0  0  0  0  0  0  0  0999 V2000
  119.2580  122.6007   86.7742 O   0  0  0  0  0  0  0  0  0  0  0  0
  120.2470  123.0236   86.1713 C   0  0  0  0  0  0  0  0  0  0  0  0
  121.5020  123.0004   86.7785 N   0  0  0  0  0  0  0  0  0  0  0  0
  121.6562  122.8496   88.2144 C   0  0  0  0  0  0  0  0  0  0  0  0
  122.2047  121.4725   88.5962 C   0  0  0  0  0  0  0  0  0  0  0  0
  123.7095  121.4252   88.5020 C   0  0  0  0  0  0  0  0  0  0  0  0
  124.3379  121.0108   87.3180 C   0  0  0  0  0  0  0  0  0  0  0  0
  125.7306  120.9870   87.2324 C   0  0  0  0  0  0  0  0  0  0  0  0
  126.4926  121.3799   88.3263 C   0  0  0  0  0  0  0  0  0  0  0  0
  127.8291  121.3571   88.2411 F   0  0  0  0  0  0  0  0  0  0  0  0
  125.8886  121.7977   89.5057 C   0  0  0  0  0  0  0  0  0  0  0  0
  124.4964  121.8223   89.5944 C   0  0  0  0  0  0  0  0  0  0  0  0
  120.1902  123.6537   84.7526 C   0  0  0  0  0  0  0  0  0  0  0  0
  118.8373  122.9816   83.8165 Cl  0  0  0  0  0  0  0  0  0  0  0  0
  121.7265  123.3150   83.8961 Cl  0  0  0  0  0  0  0  0  0  0  0  0
  119.9959  125.4157   84.9468 Cl  0  0  0  0  0  0  0  0  0  0  0  0
  122.3436  123.0929   86.1918 H   0  0  0  0  0  0  0  0  0  0  0  0
  122.3505  123.6209   88.5790 H   0  0  0  0  0  0  0  0  0  0  0  0
  120.6622  122.9559   88.6735 H   0  0  0  0  0  0  0  0  0  0  0  0
  121.9049  121.2435   89.6295 H   0  0  0  0  0  0  0  0  0  0  0  0
  121.7938  120.7330   87.8932 H   0  0  0  0  0  0  0  0  0  0  0  0
  123.7305  120.7035   86.4539 H   0  0  0  0  0  0  0  0  0  0  0  0
  126.2225  120.6592   86.3047 H   0  0  0  0  0  0  0  0  0  0  0  0
  126.5038  122.1068   90.3636 H   0  0  0  0  0  0  0  0  0  0  0  0
  124.0131  122.1546   90.5250 H   0  0  0  0  0  0  0  0  0  0  0  0
  1  2  2  0
  2  3  1  0
  3  4  1  0
  4  5  1  0
  5  6  1  0
  6  7  2  0
  7  8  1  0
  8  9  2  0
  9 10  1  0
  9 11  1  0
 11 12  2  0
  2 13  1  0
 13 14  1  0
 13 15  1  0
 13 16  1  0
 12  6  1  0
  3 17  1  0
  4 18  1  0
  4 19  1  0
  5 20  1  0
  5 21  1  0
  7 22  1  0
  8 23  1  0
 11 24  1  0
 12 25  1  0
M  END
>  <loss>  (2) 
0.4445555806159973

>  <score>  (2) 
6.714759349822998

$$$$
YORSTRKUMCJZFJ-UHFFFAOYSA-N
     RDKit          3D

 25 25  0  0  0  0  0  0  0  0999 V2000
  119.2434  122.6911   86.7353 O   0  0  0  0  0  0  0  0  0  0  0  0
  120.2595  123.0969   86.1669 C   0  0  0  0  0  0  0  0  0  0  0  0
  121.5067  122.9824   86.7818 N   0  0  0  0  0  0  0  0  0  0  0  0
  121.6166  122.8159   88.2216 C   0  0  0  0  0  0  0  0  0  0  0  0
  122.2314  121.4692   88.6130 C   0  0  0  0  0  0  0  0  0  0  0  0
  123.7401  121.4528   88.5116 C   0  0  0  0  0  0  0  0  0  0  0  0
  124.3688  121.0472   87.3240 C   0  0  0  0  0  0  0  0  0  0  0  0
  125.7614  121.0140   87.2398 C   0  0  0  0  0  0  0  0  0  0  0  0
  126.5243  121.3863   88.3396 C   0  0  0  0  0  0  0  0  0  0  0  0
  127.8606  121.3532   88.2574 F   0  0  0  0  0  0  0  0  0  0  0  0
  125.9213  121.7931   89.5233 C   0  0  0  0  0  0  0  0  0  0  0  0
  124.5290  121.8279   89.6107 C   0  0  0  0  0  0  0  0  0  0  0  0
  120.2672  123.6890   84.7305 C   0  0  0  0  0  0  0  0  0  0  0  0
  120.1685  125.4634   84.7817 Cl  0  0  0  0  0  0  0  0  0  0  0  0
  121.7791  123.2077   83.8989 Cl  0  0  0  0  0  0  0  0  0  0  0  0
  118.8673  123.0145   83.8556 Cl  0  0  0  0  0  0  0  0  0  0  0  0
  122.3611  123.0162   86.2076 H   0  0  0  0  0  0  0  0  0  0  0  0
  122.2491  123.6218   88.6223 H   0  0  0  0  0  0  0  0  0  0  0  0
  120.5999  122.8524   88.6401 H   0  0  0  0  0  0  0  0  0  0  0  0
  121.9481  121.2439   89.6517 H   0  0  0  0  0  0  0  0  0  0  0  0
  121.8476  120.7169   87.9083 H   0  0  0  0  0  0  0  0  0  0  0  0
  123.7609  120.7541   86.4554 H   0  0  0  0  0  0  0  0  0  0  0  0
  126.2520  120.6949   86.3084 H   0  0  0  0  0  0  0  0  0  0  0  0
  126.5375  122.0859   90.3862 H   0  0  0  0  0  0  0  0  0  0  0  0
  124.0473  122.1509   90.5453 H   0  0  0  0  0  0  0  0  0  0  0  0
  1  2  2  0
  2  3  1  0
  3  4  1  0
  4  5  1  0
  5  6  1  0
  6  7  2  0
  7  8  1  0
  8  9  2  0
  9 10  1  0
  9 11  1  0
 11 12  2  0
  2 13  1  0
 13 14  1  0
 13 15  1  0
 13 16  1  0
 12  6  1  0
  3 17  1  0
  4 18  1  0
  4 19  1  0
  5 20  1  0
  5 21  1  0
  7 22  1  0
  8 23  1  0
 11 24  1  0
 12 25  1  0
M  END
>  <loss>  (3) 
0.44844701886177063

>  <score>  (3) 
6.699921607971191

$$$$
YORSTRKUMCJZFJ-UHFFFAOYSA-N
     RDKit          3D

 25 25  0  0  0  0  0  0  0  0999 V2000
  119.6062  122.0192   86.2398 O   0  0  0  0  0  0  0  0  0  0  0  0
  120.3781  122.9060   85.8673 C   0  0  0  0  0  0  0  0  0  0  0  0
  121.5432  123.1693   86.5847 N   0  0  0  0  0  0  0  0  0  0  0  0
  121.6322  122.9271   88.0147 C   0  0  0  0  0  0  0  0  0  0  0  0
  122.1477  121.5237   88.3556 C   0  0  0  0  0  0  0  0  0  0  0  0
  123.6573  121.4553   88.4170 C   0  0  0  0  0  0  0  0  0  0  0  0
  124.4060  121.2720   87.2439 C   0  0  0  0  0  0  0  0  0  0  0  0
  125.7998  121.2350   87.2958 C   0  0  0  0  0  0  0  0  0  0  0  0
  126.4441  121.3776   88.5183 C   0  0  0  0  0  0  0  0  0  0  0  0
  127.7821  121.3425   88.5674 F   0  0  0  0  0  0  0  0  0  0  0  0
  125.7210  121.5561   89.6914 C   0  0  0  0  0  0  0  0  0  0  0  0
  124.3270  121.5953   89.6425 C   0  0  0  0  0  0  0  0  0  0  0  0
  120.1123  123.8240   84.6429 C   0  0  0  0  0  0  0  0  0  0  0  0
  118.6796  123.2716   83.7454 Cl  0  0  0  0  0  0  0  0  0  0  0  0
  121.5337  123.7869   83.5543 Cl  0  0  0  0  0  0  0  0  0  0  0  0
  119.8649  125.4828   85.2461 Cl  0  0  0  0  0  0  0  0  0  0  0  0
  122.3632  123.5458   86.0880 H   0  0  0  0  0  0  0  0  0  0  0  0
  122.3169  123.6678   88.4534 H   0  0  0  0  0  0  0  0  0  0  0  0
  120.6155  123.0121   88.4259 H   0  0  0  0  0  0  0  0  0  0  0  0
  121.7420  121.2278   89.3343 H   0  0  0  0  0  0  0  0  0  0  0  0
  121.8167  120.8448   87.5559 H   0  0  0  0  0  0  0  0  0  0  0  0
  123.8912  121.1570   86.2786 H   0  0  0  0  0  0  0  0  0  0  0  0
  126.3846  121.0938   86.3749 H   0  0  0  0  0  0  0  0  0  0  0  0
  126.2443  121.6658   90.6527 H   0  0  0  0  0  0  0  0  0  0  0  0
  123.7504  121.7366   90.5685 H   0  0  0  0  0  0  0  0  0  0  0  0
  1  2  2  0
  2  3  1  0
  3  4  1  0
  4  5  1  0
  5  6  1  0
  6  7  2  0
  7  8  1  0
  8  9  2  0
  9 10  1  0
  9 11  1  0
 11 12  2  0
  2 13  1  0
 13 14  1  0
 13 15  1  0
 13 16  1  0
 12  6  1  0
  3 17  1  0
  4 18  1  0
  4 19  1  0
  5 20  1  0
  5 21  1  0
  7 22  1  0
  8 23  1  0
 11 24  1  0
 12 25  1  0
M  END
>  <loss>  (4) 
0.5226511359214783

>  <score>  (4) 
6.789124488830566

$$$$
YORSTRKUMCJZFJ-UHFFFAOYSA-N
     RDKit          3D

 25 25  0  0  0  0  0  0  0  0999 V2000
  119.2689  122.6760   86.7356 O   0  0  0  0  0  0  0  0  0  0  0  0
  120.2820  123.0727   86.1555 C   0  0  0  0  0  0  0  0  0  0  0  0
  121.5375  122.9262   86.7462 N   0  0  0  0  0  0  0  0  0  0  0  0
  121.6746  122.8063   88.1884 C   0  0  0  0  0  0  0  0  0  0  0  0
  122.2628  121.4580   88.6134 C   0  0  0  0  0  0  0  0  0  0  0  0
  123.7730  121.4201   88.5443 C   0  0  0  0  0  0  0  0  0  0  0  0
  124.5462  121.9007   89.6127 C   0  0  0  0  0  0  0  0  0  0  0  0
  125.9396  121.8828   89.5380 C   0  0  0  0  0  0  0  0  0  0  0  0
  126.5593  121.3846   88.3987 C   0  0  0  0  0  0  0  0  0  0  0  0
  127.8966  121.3687   88.3284 F   0  0  0  0  0  0  0  0  0  0  0  0
  125.8120  120.9020   87.3315 C   0  0  0  0  0  0  0  0  0  0  0  0
  124.4185  120.9181   87.4031 C   0  0  0  0  0  0  0  0  0  0  0  0
  120.2752  123.6873   84.7287 C   0  0  0  0  0  0  0  0  0  0  0  0
  120.2628  125.4632   84.8094 Cl  0  0  0  0  0  0  0  0  0  0  0  0
  121.7370  123.1487   83.8442 Cl  0  0  0  0  0  0  0  0  0  0  0  0
  118.8192  123.0941   83.8869 Cl  0  0  0  0  0  0  0  0  0  0  0  0
  122.3787  122.9028   86.1523 H   0  0  0  0  0  0  0  0  0  0  0  0
  122.3364  123.6084   88.5473 H   0  0  0  0  0  0  0  0  0  0  0  0
  120.6687  122.8842   88.6265 H   0  0  0  0  0  0  0  0  0  0  0  0
  121.9547  121.2527   89.6492 H   0  0  0  0  0  0  0  0  0  0  0  0
  121.8838  120.6998   87.9123 H   0  0  0  0  0  0  0  0  0  0  0  0
  124.0514  122.2933   90.5132 H   0  0  0  0  0  0  0  0  0  0  0  0
  126.5435  122.2608   90.3761 H   0  0  0  0  0  0  0  0  0  0  0  0
  126.3157  120.5098   86.4357 H   0  0  0  0  0  0  0  0  0  0  0  0
  123.8228  120.5356   86.5612 H   0  0  0  0  0  0  0  0  0  0  0  0
  1  2  2  0
  2  3  1  0
  3  4  1  0
  4  5  1  0
  5  6  1  0
  6  7  2  0
  7  8  1  0
  8  9  2  0
  9 10  1  0
  9 11  1  0
 11 12  2  0
  2 13  1  0
 13 14  1  0
 13 15  1  0
 13 16  1  0
 12  6  1  0
  3 17  1  0
  4 18  1  0
  4 19  1  0
  5 20  1  0
  5 21  1  0
  7 22  1  0
  8 23  1  0
 11 24  1  0
 12 25  1  0
M  END
>  <loss>  (5) 
0.4799320697784424

>  <score>  (5) 
6.575387001037598

$$$$
YORSTRKUMCJZFJ-UHFFFAOYSA-N
     RDKit          3D

 25 25  0  0  0  0  0  0  0  0999 V2000
  119.4571  123.8059   86.9884 O   0  0  0  0  0  0  0  0  0  0  0  0
  120.2972  123.2916   86.2472 C   0  0  0  0  0  0  0  0  0  0  0  0
  121.3510  122.5461   86.7809 N   0  0  0  0  0  0  0  0  0  0  0  0
  121.5777  122.4984   88.2159 C   0  0  0  0  0  0  0  0  0  0  0  0
  122.2529  121.1936   88.6367 C   0  0  0  0  0  0  0  0  0  0  0  0
  123.7557  121.2813   88.5482 C   0  0  0  0  0  0  0  0  0  0  0  0
  124.4213  120.8722   87.3822 C   0  0  0  0  0  0  0  0  0  0  0  0
  125.8105  120.9693   87.2929 C   0  0  0  0  0  0  0  0  0  0  0  0
  126.5325  121.4778   88.3655 C   0  0  0  0  0  0  0  0  0  0  0  0
  127.8659  121.5706   88.2789 F   0  0  0  0  0  0  0  0  0  0  0  0
  125.8916  121.8933   89.5262 C   0  0  0  0  0  0  0  0  0  0  0  0
  124.5023  121.7977   89.6184 C   0  0  0  0  0  0  0  0  0  0  0  0
  120.3103  123.4741   84.7041 C   0  0  0  0  0  0  0  0  0  0  0  0
  119.9461  125.1839   84.3544 Cl  0  0  0  0  0  0  0  0  0  0  0  0
  121.9393  123.0707   84.0748 Cl  0  0  0  0  0  0  0  0  0  0  0  0
  119.1093  122.4138   83.9345 Cl  0  0  0  0  0  0  0  0  0  0  0  0
  121.9752  122.0237   86.1497 H   0  0  0  0  0  0  0  0  0  0  0  0
  122.2218  123.3424   88.5036 H   0  0  0  0  0  0  0  0  0  0  0  0
  120.6019  122.5586   88.7201 H   0  0  0  0  0  0  0  0  0  0  0  0
  121.9709  120.9667   89.6755 H   0  0  0  0  0  0  0  0  0  0  0  0
  121.9177  120.4011   87.9515 H   0  0  0  0  0  0  0  0  0  0  0  0
  123.8450  120.4730   86.5345 H   0  0  0  0  0  0  0  0  0  0  0  0
  126.3306  120.6454   86.3794 H   0  0  0  0  0  0  0  0  0  0  0  0
  126.4756  122.2951   90.3673 H   0  0  0  0  0  0  0  0  0  0  0  0
  123.9902  122.1285   90.5340 H   0  0  0  0  0  0  0  0  0  0  0  0
  1  2  2  0
  2  3  1  0
  3  4  1  0
  4  5  1  0
  5  6  1  0
  6  7  2  0
  7  8  1  0
  8  9  2  0
  9 10  1  0
  9 11  1  0
 11 12  2  0
  2 13  1  0
 13 14  1  0
 13 15  1  0
 13 16  1  0
 12  6  1  0
  3 17  1  0
  4 18  1  0
  4 19  1  0
  5 20  1  0
  5 21  1  0
  7 22  1  0
  8 23  1  0
 11 24  1  0
 12 25  1  0
M  END
>  <loss>  (6) 
0.4704310894012451

>  <score>  (6) 
6.498508930206299

$$$$
YORSTRKUMCJZFJ-UHFFFAOYSA-N
     RDKit          3D

 25 25  0  0  0  0  0  0  0  0999 V2000
  119.5983  121.9816   86.2057 O   0  0  0  0  0  0  0  0  0  0  0  0
  120.3469  122.8970   85.8567 C   0  0  0  0  0  0  0  0  0  0  0  0
  121.5240  123.1543   86.5603 N   0  0  0  0  0  0  0  0  0  0  0  0
  121.5882  122.9696   88.0007 C   0  0  0  0  0  0  0  0  0  0  0  0
  122.1032  121.5821   88.3936 C   0  0  0  0  0  0  0  0  0  0  0  0
  123.6125  121.4996   88.4405 C   0  0  0  0  0  0  0  0  0  0  0  0
  124.2948  121.6369   89.6595 C   0  0  0  0  0  0  0  0  0  0  0  0
  125.6886  121.5802   89.6970 C   0  0  0  0  0  0  0  0  0  0  0  0
  126.3993  121.3855   88.5191 C   0  0  0  0  0  0  0  0  0  0  0  0
  127.7370  121.3320   88.5567 F   0  0  0  0  0  0  0  0  0  0  0  0
  125.7426  121.2450   87.3028 C   0  0  0  0  0  0  0  0  0  0  0  0
  124.3489  121.3008   87.2619 C   0  0  0  0  0  0  0  0  0  0  0  0
  120.1047  123.7794   84.6012 C   0  0  0  0  0  0  0  0  0  0  0  0
  118.4780  123.4996   83.9408 Cl  0  0  0  0  0  0  0  0  0  0  0  0
  120.2688  125.5061   85.0495 Cl  0  0  0  0  0  0  0  0  0  0  0  0
  121.3463  123.3590   83.3919 Cl  0  0  0  0  0  0  0  0  0  0  0  0
  122.3588  123.4796   86.0522 H   0  0  0  0  0  0  0  0  0  0  0  0
  122.2628  123.7286   88.4236 H   0  0  0  0  0  0  0  0  0  0  0  0
  120.5665  123.0702   88.3956 H   0  0  0  0  0  0  0  0  0  0  0  0
  121.7080  121.3312   89.3890 H   0  0  0  0  0  0  0  0  0  0  0  0
  121.7604  120.8754   87.6235 H   0  0  0  0  0  0  0  0  0  0  0  0
  123.7280  121.7899   90.5897 H   0  0  0  0  0  0  0  0  0  0  0  0
  126.2213  121.6889   90.6532 H   0  0  0  0  0  0  0  0  0  0  0  0
  126.3178  121.0908   86.3779 H   0  0  0  0  0  0  0  0  0  0  0  0
  123.8247  121.1884   86.3014 H   0  0  0  0  0  0  0  0  0  0  0  0
  1  2  2  0
  2  3  1  0
  3  4  1  0
  4  5  1  0
  5  6  1  0
  6  7  2  0
  7  8  1  0
  8  9  2  0
  9 10  1  0
  9 11  1  0
 11 12  2  0
  2 13  1  0
 13 14  1  0
 13 15  1  0
 13 16  1  0
 12  6  1  0
  3 17  1  0
  4 18  1  0
  4 19  1  0
  5 20  1  0
  5 21  1  0
  7 22  1  0
  8 23  1  0
 11 24  1  0
 12 25  1  0
M  END
>  <loss>  (7) 
0.5265076756477356

>  <score>  (7) 
6.647733688354492

$$$$
YORSTRKUMCJZFJ-UHFFFAOYSA-N
     RDKit          3D

 25 25  0  0  0  0  0  0  0  0999 V2000
  119.7403  121.8544   86.1821 O   0  0  0  0  0  0  0  0  0  0  0  0
  120.4055  122.8260   85.8156 C   0  0  0  0  0  0  0  0  0  0  0  0
  121.5111  123.2394   86.5559 N   0  0  0  0  0  0  0  0  0  0  0  0
  121.6140  122.9860   87.9831 C   0  0  0  0  0  0  0  0  0  0  0  0
  122.1159  121.5740   88.3082 C   0  0  0  0  0  0  0  0  0  0  0  0
  123.6242  121.4943   88.3868 C   0  0  0  0  0  0  0  0  0  0  0  0
  124.3877  121.3548   87.2172 C   0  0  0  0  0  0  0  0  0  0  0  0
  125.7805  121.3074   87.2861 C   0  0  0  0  0  0  0  0  0  0  0  0
  126.4089  121.3960   88.5219 C   0  0  0  0  0  0  0  0  0  0  0  0
  127.7459  121.3511   88.5873 F   0  0  0  0  0  0  0  0  0  0  0  0
  125.6710  121.5306   89.6916 C   0  0  0  0  0  0  0  0  0  0  0  0
  124.2779  121.5800   89.6258 C   0  0  0  0  0  0  0  0  0  0  0  0
  120.0583  123.6909   84.5730 C   0  0  0  0  0  0  0  0  0  0  0  0
  119.2400  122.7096   83.3358 Cl  0  0  0  0  0  0  0  0  0  0  0  0
  121.5656  124.3660   83.8805 Cl  0  0  0  0  0  0  0  0  0  0  0  0
  118.9998  125.0205   85.1102 Cl  0  0  0  0  0  0  0  0  0  0  0  0
  122.2758  123.7379   86.0789 H   0  0  0  0  0  0  0  0  0  0  0  0
  122.3131  123.7151   88.4186 H   0  0  0  0  0  0  0  0  0  0  0  0
  120.6034  123.0808   88.4070 H   0  0  0  0  0  0  0  0  0  0  0  0
  121.6963  121.2657   89.2771 H   0  0  0  0  0  0  0  0  0  0  0  0
  121.7902  120.9099   87.4940 H   0  0  0  0  0  0  0  0  0  0  0  0
  123.8854  121.2825   86.2413 H   0  0  0  0  0  0  0  0  0  0  0  0
  126.3769  121.2007   86.3680 H   0  0  0  0  0  0  0  0  0  0  0  0
  126.1818  121.5977   90.6635 H   0  0  0  0  0  0  0  0  0  0  0  0
  123.6896  121.6866   90.5491 H   0  0  0  0  0  0  0  0  0  0  0  0
  1  2  2  0
  2  3  1  0
  3  4  1  0
  4  5  1  0
  5  6  1  0
  6  7  2  0
  7  8  1  0
  8  9  2  0
  9 10  1  0
  9 11  1  0
 11 12  2  0
  2 13  1  0
 13 14  1  0
 13 15  1  0
 13 16  1  0
 12  6  1  0
  3 17  1  0
  4 18  1  0
  4 19  1  0
  5 20  1  0
  5 21  1  0
  7 22  1  0
  8 23  1  0
 11 24  1  0
 12 25  1  0
M  END
>  <loss>  (8) 
0.5305762887001038

>  <score>  (8) 
6.57755184173584

$$$$
YORSTRKUMCJZFJ-UHFFFAOYSA-N
     RDKit          3D

 25 25  0  0  0  0  0  0  0  0999 V2000
  119.3278  123.7810   86.8851 O   0  0  0  0  0  0  0  0  0  0  0  0
  120.2106  123.2831   86.1834 C   0  0  0  0  0  0  0  0  0  0  0  0
  121.2051  122.4863   86.7556 N   0  0  0  0  0  0  0  0  0  0  0  0
  121.5152  122.5851   88.1723 C   0  0  0  0  0  0  0  0  0  0  0  0
  122.1369  121.2943   88.7044 C   0  0  0  0  0  0  0  0  0  0  0  0
  123.6434  121.3264   88.6436 C   0  0  0  0  0  0  0  0  0  0  0  0
  124.3166  120.8443   87.5103 C   0  0  0  0  0  0  0  0  0  0  0  0
  125.7098  120.8895   87.4461 C   0  0  0  0  0  0  0  0  0  0  0  0
  126.4284  121.4190   88.5108 C   0  0  0  0  0  0  0  0  0  0  0  0
  127.7657  121.4620   88.4483 F   0  0  0  0  0  0  0  0  0  0  0  0
  125.7801  121.9063   89.6390 C   0  0  0  0  0  0  0  0  0  0  0  0
  124.3868  121.8627   89.7061 C   0  0  0  0  0  0  0  0  0  0  0  0
  120.3443  123.5407   84.6569 C   0  0  0  0  0  0  0  0  0  0  0  0
  120.1803  125.2949   84.3838 Cl  0  0  0  0  0  0  0  0  0  0  0  0
  121.9618  123.0002   84.1054 Cl  0  0  0  0  0  0  0  0  0  0  0  0
  119.0950  122.6530   83.7568 Cl  0  0  0  0  0  0  0  0  0  0  0  0
  121.7251  121.8206   86.1663 H   0  0  0  0  0  0  0  0  0  0  0  0
  122.2240  123.4122   88.3256 H   0  0  0  0  0  0  0  0  0  0  0  0
  120.5770  122.7649   88.7177 H   0  0  0  0  0  0  0  0  0  0  0  0
  121.8265  121.1555   89.7505 H   0  0  0  0  0  0  0  0  0  0  0  0
  121.7888  120.4638   88.0727 H   0  0  0  0  0  0  0  0  0  0  0  0
  123.7431  120.4287   86.6686 H   0  0  0  0  0  0  0  0  0  0  0  0
  126.2357  120.5085   86.5583 H   0  0  0  0  0  0  0  0  0  0  0  0
  126.3615  122.3239   90.4742 H   0  0  0  0  0  0  0  0  0  0  0  0
  123.8690  122.2505   90.5959 H   0  0  0  0  0  0  0  0  0  0  0  0
  1  2  2  0
  2  3  1  0
  3  4  1  0
  4  5  1  0
  5  6  1  0
  6  7  2  0
  7  8  1  0
  8  9  2  0
  9 10  1  0
  9 11  1  0
 11 12  2  0
  2 13  1  0
 13 14  1  0
 13 15  1  0
 13 16  1  0
 12  6  1  0
  3 17  1  0
  4 18  1  0
  4 19  1  0
  5 20  1  0
  5 21  1  0
  7 22  1  0
  8 23  1  0
 11 24  1  0
 12 25  1  0
M  END
>  <loss>  (9) 
0.5315325260162354

>  <score>  (9) 
6.564245223999023

$$$$
YORSTRKUMCJZFJ-UHFFFAOYSA-N
     RDKit          3D

 25 25  0  0  0  0  0  0  0  0999 V2000
  119.6245  121.9971   86.2675 O   0  0  0  0  0  0  0  0  0  0  0  0
  120.3702  122.9023   85.8864 C   0  0  0  0  0  0  0  0  0  0  0  0
  121.4996  123.2409   86.6289 N   0  0  0  0  0  0  0  0  0  0  0  0
  121.5984  122.9460   88.0484 C   0  0  0  0  0  0  0  0  0  0  0  0
  122.1227  121.5334   88.3337 C   0  0  0  0  0  0  0  0  0  0  0  0
  123.6324  121.4733   88.3992 C   0  0  0  0  0  0  0  0  0  0  0  0
  124.3858  121.3050   87.2268 C   0  0  0  0  0  0  0  0  0  0  0  0
  125.7796  121.2756   87.2828 C   0  0  0  0  0  0  0  0  0  0  0  0
  126.4193  121.4109   88.5085 C   0  0  0  0  0  0  0  0  0  0  0  0
  127.7573  121.3832   88.5614 F   0  0  0  0  0  0  0  0  0  0  0  0
  125.6916  121.5746   89.6809 C   0  0  0  0  0  0  0  0  0  0  0  0
  124.2975  121.6061   89.6280 C   0  0  0  0  0  0  0  0  0  0  0  0
  120.1058  123.7639   84.6214 C   0  0  0  0  0  0  0  0  0  0  0  0
  118.8398  123.0251   83.6140 Cl  0  0  0  0  0  0  0  0  0  0  0  0
  121.6141  123.8906   83.6643 Cl  0  0  0  0  0  0  0  0  0  0  0  0
  119.6019  125.3865   85.1599 Cl  0  0  0  0  0  0  0  0  0  0  0  0
  122.2854  123.7128   86.1591 H   0  0  0  0  0  0  0  0  0  0  0  0
  122.2822  123.6733   88.5103 H   0  0  0  0  0  0  0  0  0  0  0  0
  120.5838  123.0106   88.4684 H   0  0  0  0  0  0  0  0  0  0  0  0
  121.7149  121.1947   89.2975 H   0  0  0  0  0  0  0  0  0  0  0  0
  121.8000  120.8857   87.5053 H   0  0  0  0  0  0  0  0  0  0  0  0
  123.8747  121.1957   86.2590 H   0  0  0  0  0  0  0  0  0  0  0  0
  126.3681  121.1462   86.3624 H   0  0  0  0  0  0  0  0  0  0  0  0
  126.2113  121.6787   90.6448 H   0  0  0  0  0  0  0  0  0  0  0  0
  123.7172  121.7357   90.5535 H   0  0  0  0  0  0  0  0  0  0  0  0
  1  2  2  0
  2  3  1  0
  3  4  1  0
  4  5  1  0
  5  6  1  0
  6  7  2  0
  7  8  1  0
  8  9  2  0
  9 10  1  0
  9 11  1  0
 11 12  2  0
  2 13  1  0
 13 14  1  0
 13 15  1  0
 13 16  1  0
 12  6  1  0
  3 17  1  0
  4 18  1  0
  4 19  1  0
  5 20  1  0
  5 21  1  0
  7 22  1  0
  8 23  1  0
 11 24  1  0
 12 25  1  0
M  END
>  <loss>  (10) 
0.5360033512115479

>  <score>  (10) 
6.551292419433594

$$$$
YORSTRKUMCJZFJ-UHFFFAOYSA-N
     RDKit          3D

 25 25  0  0  0  0  0  0  0  0999 V2000
  119.5429  122.1316   86.2038 O   0  0  0  0  0  0  0  0  0  0  0  0
  120.3629  122.9444   85.7713 C   0  0  0  0  0  0  0  0  0  0  0  0
  121.5638  123.1639   86.4468 N   0  0  0  0  0  0  0  0  0  0  0  0
  121.6499  123.0012   87.8888 C   0  0  0  0  0  0  0  0  0  0  0  0
  122.1461  121.6109   88.2954 C   0  0  0  0  0  0  0  0  0  0  0  0
  123.6534  121.5173   88.3742 C   0  0  0  0  0  0  0  0  0  0  0  0
  124.3226  121.8114   89.5724 C   0  0  0  0  0  0  0  0  0  0  0  0
  125.7150  121.7435   89.6367 C   0  0  0  0  0  0  0  0  0  0  0  0
  126.4372  121.3812   88.5065 C   0  0  0  0  0  0  0  0  0  0  0  0
  127.7734  121.3172   88.5697 F   0  0  0  0  0  0  0  0  0  0  0  0
  125.7935  121.0839   87.3117 C   0  0  0  0  0  0  0  0  0  0  0  0
  124.4013  121.1504   87.2441 C   0  0  0  0  0  0  0  0  0  0  0  0
  120.1847  123.7259   84.4405 C   0  0  0  0  0  0  0  0  0  0  0  0
  118.4665  123.8239   83.9945 Cl  0  0  0  0  0  0  0  0  0  0  0  0
  120.8377  125.3828   84.6339 Cl  0  0  0  0  0  0  0  0  0  0  0  0
  121.1059  122.8680   83.1773 Cl  0  0  0  0  0  0  0  0  0  0  0  0
  122.4009  123.4452   85.9166 H   0  0  0  0  0  0  0  0  0  0  0  0
  122.3456  123.7542   88.2875 H   0  0  0  0  0  0  0  0  0  0  0  0
  120.6372  123.1271   88.2995 H   0  0  0  0  0  0  0  0  0  0  0  0
  121.7282  121.3652   89.2828 H   0  0  0  0  0  0  0  0  0  0  0  0
  121.8142  120.9050   87.5198 H   0  0  0  0  0  0  0  0  0  0  0  0
  123.7468  122.0969   90.4651 H   0  0  0  0  0  0  0  0  0  0  0  0
  126.2375  121.9754   90.5765 H   0  0  0  0  0  0  0  0  0  0  0  0
  126.3776  120.7978   86.4246 H   0  0  0  0  0  0  0  0  0  0  0  0
  123.8873  120.9143   86.3007 H   0  0  0  0  0  0  0  0  0  0  0  0
  1  2  2  0
  2  3  1  0
  3  4  1  0
  4  5  1  0
  5  6  1  0
  6  7  2  0
  7  8  1  0
  8  9  2  0
  9 10  1  0
  9 11  1  0
 11 12  2  0
  2 13  1  0
 13 14  1  0
 13 15  1  0
 13 16  1  0
 12  6  1  0
  3 17  1  0
  4 18  1  0
  4 19  1  0
  5 20  1  0
  5 21  1  0
  7 22  1  0
  8 23  1  0
 11 24  1  0
 12 25  1  0
M  END
>  <loss>  (11) 
0.5317127108573914

>  <score>  (11) 
6.507408618927002

$$$$
YORSTRKUMCJZFJ-UHFFFAOYSA-N
     RDKit          3D

 25 25  0  0  0  0  0  0  0  0999 V2000
  119.2389  122.6528   86.7227 O   0  0  0  0  0  0  0  0  0  0  0  0
  120.2482  123.0122   86.1122 C   0  0  0  0  0  0  0  0  0  0  0  0
  121.5008  122.9301   86.7169 N   0  0  0  0  0  0  0  0  0  0  0  0
  121.6497  122.8512   88.1602 C   0  0  0  0  0  0  0  0  0  0  0  0
  122.2093  121.5043   88.6340 C   0  0  0  0  0  0  0  0  0  0  0  0
  123.7184  121.4401   88.5582 C   0  0  0  0  0  0  0  0  0  0  0  0
  124.3455  120.7080   87.5378 C   0  0  0  0  0  0  0  0  0  0  0  0
  125.7375  120.6694   87.4514 C   0  0  0  0  0  0  0  0  0  0  0  0
  126.5015  121.3584   88.3850 C   0  0  0  0  0  0  0  0  0  0  0  0
  127.8377  121.3214   88.3011 F   0  0  0  0  0  0  0  0  0  0  0  0
  125.9000  122.0856   89.4048 C   0  0  0  0  0  0  0  0  0  0  0  0
  124.5080  122.1276   89.4929 C   0  0  0  0  0  0  0  0  0  0  0  0
  120.2219  123.6248   84.6851 C   0  0  0  0  0  0  0  0  0  0  0  0
  118.6851  123.2514   83.8716 Cl  0  0  0  0  0  0  0  0  0  0  0  0
  121.5718  122.9462   83.7235 Cl  0  0  0  0  0  0  0  0  0  0  0  0
  120.4280  125.3882   84.8425 Cl  0  0  0  0  0  0  0  0  0  0  0  0
  122.3438  122.9251   86.1250 H   0  0  0  0  0  0  0  0  0  0  0  0
  122.3338  123.6487   88.4858 H   0  0  0  0  0  0  0  0  0  0  0  0
  120.6478  122.9634   88.6001 H   0  0  0  0  0  0  0  0  0  0  0  0
  121.9021  121.3433   89.6779 H   0  0  0  0  0  0  0  0  0  0  0  0
  121.8097  120.7257   87.9676 H   0  0  0  0  0  0  0  0  0  0  0  0
  123.7363  120.1620   86.8025 H   0  0  0  0  0  0  0  0  0  0  0  0
  126.2268  120.0971   86.6494 H   0  0  0  0  0  0  0  0  0  0  0  0
  126.5174  122.6250   90.1383 H   0  0  0  0  0  0  0  0  0  0  0  0
  124.0274  122.7022   90.2985 H   0  0  0  0  0  0  0  0  0  0  0  0
  1  2  2  0
  2  3  1  0
  3  4  1  0
  4  5  1  0
  5  6  1  0
  6  7  2  0
  7  8  1  0
  8  9  2  0
  9 10  1  0
  9 11  1  0
 11 12  2  0
  2 13  1  0
 13 14  1  0
 13 15  1  0
 13 16  1  0
 12  6  1  0
  3 17  1  0
  4 18  1  0
  4 19  1  0
  5 20  1  0
  5 21  1  0
  7 22  1  0
  8 23  1  0
 11 24  1  0
 12 25  1  0
M  END
>  <loss>  (12) 
0.5081127882003784

>  <score>  (12) 
6.387924671173096

$$$$
YORSTRKUMCJZFJ-UHFFFAOYSA-N
     RDKit          3D

 25 25  0  0  0  0  0  0  0  0999 V2000
  119.1598  122.9144   86.7962 O   0  0  0  0  0  0  0  0  0  0  0  0
  120.2042  123.0295   86.1515 C   0  0  0  0  0  0  0  0  0  0  0  0
  121.4275  122.6549   86.7120 N   0  0  0  0  0  0  0  0  0  0  0  0
  121.6963  122.8692   88.1244 C   0  0  0  0  0  0  0  0  0  0  0  0
  122.1936  121.5935   88.8033 C   0  0  0  0  0  0  0  0  0  0  0  0
  123.6825  121.4133   88.6452 C   0  0  0  0  0  0  0  0  0  0  0  0
  124.1898  120.3509   87.8812 C   0  0  0  0  0  0  0  0  0  0  0  0
  125.5670  120.1936   87.7200 C   0  0  0  0  0  0  0  0  0  0  0  0
  126.4350  121.0986   88.3182 C   0  0  0  0  0  0  0  0  0  0  0  0
  127.7568  120.9468   88.1630 F   0  0  0  0  0  0  0  0  0  0  0  0
  125.9522  122.1600   89.0737 C   0  0  0  0  0  0  0  0  0  0  0  0
  124.5754  122.3202   89.2365 C   0  0  0  0  0  0  0  0  0  0  0  0
  120.2729  123.6483   84.7278 C   0  0  0  0  0  0  0  0  0  0  0  0
  118.7749  124.5271   84.3502 Cl  0  0  0  0  0  0  0  0  0  0  0  0
  121.6715  124.7529   84.6806 Cl  0  0  0  0  0  0  0  0  0  0  0  0
  120.5057  122.3399   83.5251 Cl  0  0  0  0  0  0  0  0  0  0  0  0
  122.1481  122.2215   86.1172 H   0  0  0  0  0  0  0  0  0  0  0  0
  122.4639  123.6505   88.2270 H   0  0  0  0  0  0  0  0  0  0  0  0
  120.7577  123.1736   88.6105 H   0  0  0  0  0  0  0  0  0  0  0  0
  121.9540  121.6452   89.8756 H   0  0  0  0  0  0  0  0  0  0  0  0
  121.6950  120.7375   88.3251 H   0  0  0  0  0  0  0  0  0  0  0  0
  123.4985  119.6386   87.4071 H   0  0  0  0  0  0  0  0  0  0  0  0
  125.9628  119.3586   87.1233 H   0  0  0  0  0  0  0  0  0  0  0  0
  126.6509  122.8698   89.5407 H   0  0  0  0  0  0  0  0  0  0  0  0
  124.1884  123.1610   89.8309 H   0  0  0  0  0  0  0  0  0  0  0  0
  1  2  2  0
  2  3  1  0
  3  4  1  0
  4  5  1  0
  5  6  1  0
  6  7  2  0
  7  8  1  0
  8  9  2  0
  9 10  1  0
  9 11  1  0
 11 12  2  0
  2 13  1  0
 13 14  1  0
 13 15  1  0
 13 16  1  0
 12  6  1  0
  3 17  1  0
  4 18  1  0
  4 19  1  0
  5 20  1  0
  5 21  1  0
  7 22  1  0
  8 23  1  0
 11 24  1  0
 12 25  1  0
M  END
>  <loss>  (13) 
0.48763227462768555

>  <score>  (13) 
6.251278400421143

$$$$
YORSTRKUMCJZFJ-UHFFFAOYSA-N
     RDKit          3D

 25 25  0  0  0  0  0  0  0  0999 V2000
  120.5356  124.7582   86.4202 O   0  0  0  0  0  0  0  0  0  0  0  0
  120.5046  123.6276   85.9300 C   0  0  0  0  0  0  0  0  0  0  0  0
  121.1097  122.5538   86.5873 N   0  0  0  0  0  0  0  0  0  0  0  0
  121.5038  122.6610   87.9823 C   0  0  0  0  0  0  0  0  0  0  0  0
  122.1099  121.3564   88.4985 C   0  0  0  0  0  0  0  0  0  0  0  0
  123.6174  121.3851   88.4728 C   0  0  0  0  0  0  0  0  0  0  0  0
  124.3130  121.0067   87.3140 C   0  0  0  0  0  0  0  0  0  0  0  0
  125.7075  121.0495   87.2836 C   0  0  0  0  0  0  0  0  0  0  0  0
  126.4050  121.4734   88.4080 C   0  0  0  0  0  0  0  0  0  0  0  0
  127.7435  121.5142   88.3779 F   0  0  0  0  0  0  0  0  0  0  0  0
  125.7344  121.8574   89.5628 C   0  0  0  0  0  0  0  0  0  0  0  0
  124.3398  121.8159   89.5961 C   0  0  0  0  0  0  0  0  0  0  0  0
  119.8749  123.3064   84.5462 C   0  0  0  0  0  0  0  0  0  0  0  0
  118.4775  124.3586   84.2309 Cl  0  0  0  0  0  0  0  0  0  0  0  0
  121.1315  123.5519   83.3056 Cl  0  0  0  0  0  0  0  0  0  0  0  0
  119.3399  121.5960   84.5226 Cl  0  0  0  0  0  0  0  0  0  0  0  0
  121.2788  121.6752   86.0770 H   0  0  0  0  0  0  0  0  0  0  0  0
  122.2486  123.4644   88.0820 H   0  0  0  0  0  0  0  0  0  0  0  0
  120.6053  122.8815   88.5773 H   0  0  0  0  0  0  0  0  0  0  0  0
  121.7754  121.1946   89.5338 H   0  0  0  0  0  0  0  0  0  0  0  0
  121.7742  120.5417   87.8401 H   0  0  0  0  0  0  0  0  0  0  0  0
  123.7562  120.6746   86.4253 H   0  0  0  0  0  0  0  0  0  0  0  0
  126.2510  120.7497   86.3755 H   0  0  0  0  0  0  0  0  0  0  0  0
  126.2993  122.1921   90.4453 H   0  0  0  0  0  0  0  0  0  0  0  0
  123.8045  122.1222   90.5069 H   0  0  0  0  0  0  0  0  0  0  0  0
  1  2  2  0
  2  3  1  0
  3  4  1  0
  4  5  1  0
  5  6  1  0
  6  7  2  0
  7  8  1  0
  8  9  2  0
  9 10  1  0
  9 11  1  0
 11 12  2  0
  2 13  1  0
 13 14  1  0
 13 15  1  0
 13 16  1  0
 12  6  1  0
  3 17  1  0
  4 18  1  0
  4 19  1  0
  5 20  1  0
  5 21  1  0
  7 22  1  0
  8 23  1  0
 11 24  1  0
 12 25  1  0
M  END
>  <loss>  (14) 
0.548027515411377

>  <score>  (14) 
6.338077545166016

$$$$
YORSTRKUMCJZFJ-UHFFFAOYSA-N
     RDKit          3D

 25 25  0  0  0  0  0  0  0  0999 V2000
  121.0786  124.7357   86.0945 O   0  0  0  0  0  0  0  0  0  0  0  0
  120.6575  123.6118   85.8131 C   0  0  0  0  0  0  0  0  0  0  0  0
  120.9853  122.5125   86.6101 N   0  0  0  0  0  0  0  0  0  0  0  0
  121.5024  122.6963   87.9561 C   0  0  0  0  0  0  0  0  0  0  0  0
  122.0931  121.4020   88.5145 C   0  0  0  0  0  0  0  0  0  0  0  0
  123.6007  121.4082   88.4796 C   0  0  0  0  0  0  0  0  0  0  0  0
  124.2847  120.9286   87.3517 C   0  0  0  0  0  0  0  0  0  0  0  0
  125.6794  120.9501   87.3117 C   0  0  0  0  0  0  0  0  0  0  0  0
  126.3887  121.4533   88.3951 C   0  0  0  0  0  0  0  0  0  0  0  0
  127.7274  121.4736   88.3557 F   0  0  0  0  0  0  0  0  0  0  0  0
  125.7298  121.9378   89.5184 C   0  0  0  0  0  0  0  0  0  0  0  0
  124.3350  121.9179   89.5614 C   0  0  0  0  0  0  0  0  0  0  0  0
  119.8097  123.3022   84.5482 C   0  0  0  0  0  0  0  0  0  0  0  0
  120.9345  123.0115   83.1959 Cl  0  0  0  0  0  0  0  0  0  0  0  0
  118.8320  121.8283   84.8378 Cl  0  0  0  0  0  0  0  0  0  0  0  0
  118.7233  124.6575   84.1713 Cl  0  0  0  0  0  0  0  0  0  0  0  0
  120.8589  121.5598   86.2394 H   0  0  0  0  0  0  0  0  0  0  0  0
  122.2874  123.4665   87.9346 H   0  0  0  0  0  0  0  0  0  0  0  0
  120.6690  123.0019   88.6057 H   0  0  0  0  0  0  0  0  0  0  0  0
  121.7624  121.2813   89.5566 H   0  0  0  0  0  0  0  0  0  0  0  0
  121.7420  120.5697   87.8868 H   0  0  0  0  0  0  0  0  0  0  0  0
  123.7186  120.5339   86.4952 H   0  0  0  0  0  0  0  0  0  0  0  0
  126.2137  120.5711   86.4280 H   0  0  0  0  0  0  0  0  0  0  0  0
  126.3040  122.3345   90.3686 H   0  0  0  0  0  0  0  0  0  0  0  0
  123.8089  122.3035   90.4471 H   0  0  0  0  0  0  0  0  0  0  0  0
  1  2  2  0
  2  3  1  0
  3  4  1  0
  4  5  1  0
  5  6  1  0
  6  7  2  0
  7  8  1  0
  8  9  2  0
  9 10  1  0
  9 11  1  0
 11 12  2  0
  2 13  1  0
 13 14  1  0
 13 15  1  0
 13 16  1  0
 12  6  1  0
  3 17  1  0
  4 18  1  0
  4 19  1  0
  5 20  1  0
  5 21  1  0
  7 22  1  0
  8 23  1  0
 11 24  1  0
 12 25  1  0
M  END
>  <loss>  (15) 
0.5486878156661987

>  <score>  (15) 
6.272588729858398

$$$$
YORSTRKUMCJZFJ-UHFFFAOYSA-N
     RDKit          3D

 25 25  0  0  0  0  0  0  0  0999 V2000
  119.0827  123.0949   86.8400 O   0  0  0  0  0  0  0  0  0  0  0  0
  120.1047  123.0635   86.1513 C   0  0  0  0  0  0  0  0  0  0  0  0
  121.3076  122.6006   86.6895 N   0  0  0  0  0  0  0  0  0  0  0  0
  121.6885  122.9288   88.0534 C   0  0  0  0  0  0  0  0  0  0  0  0
  122.2212  121.7060   88.7995 C   0  0  0  0  0  0  0  0  0  0  0  0
  123.7070  121.5315   88.6092 C   0  0  0  0  0  0  0  0  0  0  0  0
  124.2008  120.4847   87.8153 C   0  0  0  0  0  0  0  0  0  0  0  0
  125.5748  120.3329   87.6245 C   0  0  0  0  0  0  0  0  0  0  0  0
  126.4531  121.2277   88.2230 C   0  0  0  0  0  0  0  0  0  0  0  0
  127.7717  121.0813   88.0393 F   0  0  0  0  0  0  0  0  0  0  0  0
  125.9835  122.2738   89.0078 C   0  0  0  0  0  0  0  0  0  0  0  0
  124.6099  122.4284   89.2003 C   0  0  0  0  0  0  0  0  0  0  0  0
  120.1733  123.5847   84.6890 C   0  0  0  0  0  0  0  0  0  0  0  0
  118.6202  124.2980   84.2013 Cl  0  0  0  0  0  0  0  0  0  0  0  0
  121.4718  124.8034   84.6052 Cl  0  0  0  0  0  0  0  0  0  0  0  0
  120.5637  122.2213   83.5931 Cl  0  0  0  0  0  0  0  0  0  0  0  0
  121.9325  122.0194   86.1128 H   0  0  0  0  0  0  0  0  0  0  0  0
  122.4714  123.7011   88.0292 H   0  0  0  0  0  0  0  0  0  0  0  0
  120.7945  123.2913   88.5820 H   0  0  0  0  0  0  0  0  0  0  0  0
  122.0123  121.8260   89.8728 H   0  0  0  0  0  0  0  0  0  0  0  0
  121.7196  120.8151   88.3938 H   0  0  0  0  0  0  0  0  0  0  0  0
  123.5013  119.7804   87.3412 H   0  0  0  0  0  0  0  0  0  0  0  0
  125.9601  119.5101   87.0044 H   0  0  0  0  0  0  0  0  0  0  0  0
  126.6902  122.9757   89.4747 H   0  0  0  0  0  0  0  0  0  0  0  0
  124.2334  123.2571   89.8180 H   0  0  0  0  0  0  0  0  0  0  0  0
  1  2  2  0
  2  3  1  0
  3  4  1  0
  4  5  1  0
  5  6  1  0
  6  7  2  0
  7  8  1  0
  8  9  2  0
  9 10  1  0
  9 11  1  0
 11 12  2  0
  2 13  1  0
 13 14  1  0
 13 15  1  0
 13 16  1  0
 12  6  1  0
  3 17  1  0
  4 18  1  0
  4 19  1  0
  5 20  1  0
  5 21  1  0
  7 22  1  0
  8 23  1  0
 11 24  1  0
 12 25  1  0
M  END
>  <loss>  (16) 
0.5301534533500671

>  <score>  (16) 
6.142857074737549

$$$$
YORSTRKUMCJZFJ-UHFFFAOYSA-N
     RDKit          3D

 25 25  0  0  0  0  0  0  0  0999 V2000
  121.1383  124.7578   86.1324 O   0  0  0  0  0  0  0  0  0  0  0  0
  120.6735  123.6467   85.8695 C   0  0  0  0  0  0  0  0  0  0  0  0
  121.0264  122.5323   86.6343 N   0  0  0  0  0  0  0  0  0  0  0  0
  121.4981  122.6858   88.0006 C   0  0  0  0  0  0  0  0  0  0  0  0
  122.0998  121.3879   88.5382 C   0  0  0  0  0  0  0  0  0  0  0  0
  123.6069  121.4005   88.4872 C   0  0  0  0  0  0  0  0  0  0  0  0
  124.2824  120.8572   87.3834 C   0  0  0  0  0  0  0  0  0  0  0  0
  125.6765  120.8842   87.3274 C   0  0  0  0  0  0  0  0  0  0  0  0
  126.3936  121.4564   88.3707 C   0  0  0  0  0  0  0  0  0  0  0  0
  127.7317  121.4818   88.3161 F   0  0  0  0  0  0  0  0  0  0  0  0
  125.7431  122.0044   89.4694 C   0  0  0  0  0  0  0  0  0  0  0  0
  124.3489  121.9793   89.5282 C   0  0  0  0  0  0  0  0  0  0  0  0
  119.7384  123.3692   84.6599 C   0  0  0  0  0  0  0  0  0  0  0  0
  120.7401  123.3711   83.1851 Cl  0  0  0  0  0  0  0  0  0  0  0  0
  118.9748  121.7600   84.8598 Cl  0  0  0  0  0  0  0  0  0  0  0  0
  118.4682  124.6073   84.5491 Cl  0  0  0  0  0  0  0  0  0  0  0  0
  120.9513  121.5901   86.2249 H   0  0  0  0  0  0  0  0  0  0  0  0
  122.2661  123.4728   88.0266 H   0  0  0  0  0  0  0  0  0  0  0  0
  120.6387  122.9538   88.6328 H   0  0  0  0  0  0  0  0  0  0  0  0
  121.7809  121.2544   89.5825 H   0  0  0  0  0  0  0  0  0  0  0  0
  121.7452  120.5611   87.9052 H   0  0  0  0  0  0  0  0  0  0  0  0
  123.7101  120.4079   86.5584 H   0  0  0  0  0  0  0  0  0  0  0  0
  126.2042  120.4552   86.4628 H   0  0  0  0  0  0  0  0  0  0  0  0
  126.3234  122.4554   90.2879 H   0  0  0  0  0  0  0  0  0  0  0  0
  123.8294  122.4150   90.3944 H   0  0  0  0  0  0  0  0  0  0  0  0
  1  2  2  0
  2  3  1  0
  3  4  1  0
  4  5  1  0
  5  6  1  0
  6  7  2  0
  7  8  1  0
  8  9  2  0
  9 10  1  0
  9 11  1  0
 11 12  2  0
  2 13  1  0
 13 14  1  0
 13 15  1  0
 13 16  1  0
 12  6  1  0
  3 17  1  0
  4 18  1  0
  4 19  1  0
  5 20  1  0
  5 21  1  0
  7 22  1  0
  8 23  1  0
 11 24  1  0
 12 25  1  0
M  END
>  <loss>  (17) 
0.5532722473144531

>  <score>  (17) 
6.1563029289245605

$$$$
YORSTRKUMCJZFJ-UHFFFAOYSA-N
     RDKit          3D

 25 25  0  0  0  0  0  0  0  0999 V2000
  121.3383  124.6562   86.0272 O   0  0  0  0  0  0  0  0  0  0  0  0
  120.7456  123.5936   85.8289 C   0  0  0  0  0  0  0  0  0  0  0  0
  120.9454  122.5021   86.6772 N   0  0  0  0  0  0  0  0  0  0  0  0
  121.4838  122.6870   88.0147 C   0  0  0  0  0  0  0  0  0  0  0  0
  122.0877  121.3946   88.5628 C   0  0  0  0  0  0  0  0  0  0  0  0
  123.5943  121.4039   88.4993 C   0  0  0  0  0  0  0  0  0  0  0  0
  124.2620  120.7736   87.4378 C   0  0  0  0  0  0  0  0  0  0  0  0
  125.6556  120.7967   87.3690 C   0  0  0  0  0  0  0  0  0  0  0  0
  126.3800  121.4517   88.3572 C   0  0  0  0  0  0  0  0  0  0  0  0
  127.7176  121.4734   88.2904 F   0  0  0  0  0  0  0  0  0  0  0  0
  125.7373  122.0863   89.4130 C   0  0  0  0  0  0  0  0  0  0  0  0
  124.3436  122.0652   89.4844 C   0  0  0  0  0  0  0  0  0  0  0  0
  119.8053  123.3460   84.6168 C   0  0  0  0  0  0  0  0  0  0  0  0
  120.8100  122.7936   83.2516 Cl  0  0  0  0  0  0  0  0  0  0  0  0
  118.6198  122.0698   85.0393 Cl  0  0  0  0  0  0  0  0  0  0  0  0
  118.9321  124.8321   84.1834 Cl  0  0  0  0  0  0  0  0  0  0  0  0
  120.7082  121.5543   86.3510 H   0  0  0  0  0  0  0  0  0  0  0  0
  122.2658  123.4599   87.9808 H   0  0  0  0  0  0  0  0  0  0  0  0
  120.6600  122.9897   88.6779 H   0  0  0  0  0  0  0  0  0  0  0  0
  121.7771  121.2741   89.6112 H   0  0  0  0  0  0  0  0  0  0  0  0
  121.7265  120.5609   87.9427 H   0  0  0  0  0  0  0  0  0  0  0  0
  123.6840  120.2588   86.6562 H   0  0  0  0  0  0  0  0  0  0  0  0
  126.1772  120.2996   86.5378 H   0  0  0  0  0  0  0  0  0  0  0  0
  126.3233  122.6022   90.1879 H   0  0  0  0  0  0  0  0  0  0  0  0
  123.8303  122.5692   90.3166 H   0  0  0  0  0  0  0  0  0  0  0  0
  1  2  2  0
  2  3  1  0
  3  4  1  0
  4  5  1  0
  5  6  1  0
  6  7  2  0
  7  8  1  0
  8  9  2  0
  9 10  1  0
  9 11  1  0
 11 12  2  0
  2 13  1  0
 13 14  1  0
 13 15  1  0
 13 16  1  0
 12  6  1  0
  3 17  1  0
  4 18  1  0
  4 19  1  0
  5 20  1  0
  5 21  1  0
  7 22  1  0
  8 23  1  0
 11 24  1  0
 12 25  1  0
M  END
>  <loss>  (18) 
0.5644566416740417

>  <score>  (18) 
6.079305171966553

$$$$
YORSTRKUMCJZFJ-UHFFFAOYSA-N
     RDKit          3D

 25 25  0  0  0  0  0  0  0  0999 V2000
  121.6920  124.4203   85.7285 O   0  0  0  0  0  0  0  0  0  0  0  0
  120.8827  123.4908   85.7033 C   0  0  0  0  0  0  0  0  0  0  0  0
  120.9405  122.4752   86.6606 N   0  0  0  0  0  0  0  0  0  0  0  0
  121.5142  122.7209   87.9734 C   0  0  0  0  0  0  0  0  0  0  0  0
  122.0915  121.4444   88.5840 C   0  0  0  0  0  0  0  0  0  0  0  0
  123.5982  121.4219   88.5259 C   0  0  0  0  0  0  0  0  0  0  0  0
  124.2567  120.7373   87.4926 C   0  0  0  0  0  0  0  0  0  0  0  0
  125.6506  120.7307   87.4283 C   0  0  0  0  0  0  0  0  0  0  0  0
  126.3847  121.4099   88.3927 C   0  0  0  0  0  0  0  0  0  0  0  0
  127.7226  121.4029   88.3302 F   0  0  0  0  0  0  0  0  0  0  0  0
  125.7513  122.0980   89.4202 C   0  0  0  0  0  0  0  0  0  0  0  0
  124.3573  122.1068   89.4871 C   0  0  0  0  0  0  0  0  0  0  0  0
  119.8002  123.3217   84.6014 C   0  0  0  0  0  0  0  0  0  0  0  0
  119.7479  124.7507   83.5458 Cl  0  0  0  0  0  0  0  0  0  0  0  0
  120.2065  121.8649   83.6574 Cl  0  0  0  0  0  0  0  0  0  0  0  0
  118.1982  123.1034   85.3748 Cl  0  0  0  0  0  0  0  0  0  0  0  0
  120.5721  121.5405   86.4333 H   0  0  0  0  0  0  0  0  0  0  0  0
  122.3179  123.4658   87.8778 H   0  0  0  0  0  0  0  0  0  0  0  0
  120.7150  123.0872   88.6345 H   0  0  0  0  0  0  0  0  0  0  0  0
  121.7756  121.3794   89.6357 H   0  0  0  0  0  0  0  0  0  0  0  0
  121.7161  120.5895   88.0024 H   0  0  0  0  0  0  0  0  0  0  0  0
  123.6710  120.2035   86.7297 H   0  0  0  0  0  0  0  0  0  0  0  0
  126.1649  120.1911   86.6193 H   0  0  0  0  0  0  0  0  0  0  0  0
  126.3449  122.6326   90.1764 H   0  0  0  0  0  0  0  0  0  0  0  0
  123.8513  122.6531   90.2968 H   0  0  0  0  0  0  0  0  0  0  0  0
  1  2  2  0
  2  3  1  0
  3  4  1  0
  4  5  1  0
  5  6  1  0
  6  7  2  0
  7  8  1  0
  8  9  2  0
  9 10  1  0
  9 11  1  0
 11 12  2  0
  2 13  1  0
 13 14  1  0
 13 15  1  0
 13 16  1  0
 12  6  1  0
  3 17  1  0
  4 18  1  0
  4 19  1  0
  5 20  1  0
  5 21  1  0
  7 22  1  0
  8 23  1  0
 11 24  1  0
 12 25  1  0
M  END
>  <loss>  (19) 
0.5584017634391785

>  <score>  (19) 
5.9601335525512695

$$$$
YORSTRKUMCJZFJ-UHFFFAOYSA-N
     RDKit          3D

 25 25  0  0  0  0  0  0  0  0999 V2000
  120.8974  124.7808   86.2389 O   0  0  0  0  0  0  0  0  0  0  0  0
  120.5880  123.6306   85.9211 C   0  0  0  0  0  0  0  0  0  0  0  0
  121.0013  122.5457   86.6979 N   0  0  0  0  0  0  0  0  0  0  0  0
  121.4835  122.7423   88.0551 C   0  0  0  0  0  0  0  0  0  0  0  0
  122.0787  121.4588   88.6330 C   0  0  0  0  0  0  0  0  0  0  0  0
  123.5828  121.4360   88.5263 C   0  0  0  0  0  0  0  0  0  0  0  0
  124.2115  120.6419   87.5546 C   0  0  0  0  0  0  0  0  0  0  0  0
  125.6026  120.6335   87.4438 C   0  0  0  0  0  0  0  0  0  0  0  0
  126.3633  121.4201   88.2999 C   0  0  0  0  0  0  0  0  0  0  0  0
  127.6984  121.4115   88.1928 F   0  0  0  0  0  0  0  0  0  0  0  0
  125.7593  122.2173   89.2645 C   0  0  0  0  0  0  0  0  0  0  0  0
  124.3683  122.2280   89.3776 C   0  0  0  0  0  0  0  0  0  0  0  0
  119.7968  123.2773   84.6312 C   0  0  0  0  0  0  0  0  0  0  0  0
  118.6081  124.5440   84.2550 Cl  0  0  0  0  0  0  0  0  0  0  0  0
  120.9711  123.1104   83.3002 Cl  0  0  0  0  0  0  0  0  0  0  0  0
  118.9412  121.7207   84.8701 Cl  0  0  0  0  0  0  0  0  0  0  0  0
  120.9639  121.5947   86.3042 H   0  0  0  0  0  0  0  0  0  0  0  0
  122.2578  123.5235   88.0490 H   0  0  0  0  0  0  0  0  0  0  0  0
  120.6305  123.0387   88.6832 H   0  0  0  0  0  0  0  0  0  0  0  0
  121.7967  121.3827   89.6936 H   0  0  0  0  0  0  0  0  0  0  0  0
  121.6840  120.6105   88.0546 H   0  0  0  0  0  0  0  0  0  0  0  0
  123.6048  120.0230   86.8772 H   0  0  0  0  0  0  0  0  0  0  0  0
  126.0936  120.0083   86.6836 H   0  0  0  0  0  0  0  0  0  0  0  0
  126.3738  122.8361   89.9349 H   0  0  0  0  0  0  0  0  0  0  0  0
  123.8856  122.8601   90.1375 H   0  0  0  0  0  0  0  0  0  0  0  0
  1  2  2  0
  2  3  1  0
  3  4  1  0
  4  5  1  0
  5  6  1  0
  6  7  2  0
  7  8  1  0
  8  9  2  0
  9 10  1  0
  9 11  1  0
 11 12  2  0
  2 13  1  0
 13 14  1  0
 13 15  1  0
 13 16  1  0
 12  6  1  0
  3 17  1  0
  4 18  1  0
  4 19  1  0
  5 20  1  0
  5 21  1  0
  7 22  1  0
  8 23  1  0
 11 24  1  0
 12 25  1  0
M  END
>  <loss>  (20) 
0.563122570514679

>  <score>  (20) 
5.946225166320801

$$$$
YORSTRKUMCJZFJ-UHFFFAOYSA-N
     RDKit          3D

 25 25  0  0  0  0  0  0  0  0999 V2000
  119.1527  122.0396   86.2999 O   0  0  0  0  0  0  0  0  0  0  0  0
  120.0925  122.7764   85.9925 C   0  0  0  0  0  0  0  0  0  0  0  0
  121.2102  122.8709   86.8208 N   0  0  0  0  0  0  0  0  0  0  0  0
  121.4106  121.9719   87.9433 C   0  0  0  0  0  0  0  0  0  0  0  0
  122.4154  122.5259   88.9564 C   0  0  0  0  0  0  0  0  0  0  0  0
  123.8094  122.0100   88.6995 C   0  0  0  0  0  0  0  0  0  0  0  0
  124.2220  120.7762   89.2246 C   0  0  0  0  0  0  0  0  0  0  0  0
  125.5074  120.2972   88.9674 C   0  0  0  0  0  0  0  0  0  0  0  0
  126.3760  121.0479   88.1844 C   0  0  0  0  0  0  0  0  0  0  0  0
  127.6087  120.5853   87.9382 F   0  0  0  0  0  0  0  0  0  0  0  0
  125.9842  122.2699   87.6518 C   0  0  0  0  0  0  0  0  0  0  0  0
  124.6999  122.7516   87.9074 C   0  0  0  0  0  0  0  0  0  0  0  0
  120.1030  123.6828   84.7310 C   0  0  0  0  0  0  0  0  0  0  0  0
  118.8397  123.1849   83.5847 Cl  0  0  0  0  0  0  0  0  0  0  0  0
  121.7029  123.5644   83.9344 Cl  0  0  0  0  0  0  0  0  0  0  0  0
  119.8296  125.3622   85.2651 Cl  0  0  0  0  0  0  0  0  0  0  0  0
  121.9136  123.5990   86.6309 H   0  0  0  0  0  0  0  0  0  0  0  0
  120.4463  121.8170   88.4494 H   0  0  0  0  0  0  0  0  0  0  0  0
  121.8135  121.0266   87.5508 H   0  0  0  0  0  0  0  0  0  0  0  0
  122.4232  123.6237   88.8868 H   0  0  0  0  0  0  0  0  0  0  0  0
  122.1075  122.1965   89.9597 H   0  0  0  0  0  0  0  0  0  0  0  0
  123.5299  120.1842   89.8414 H   0  0  0  0  0  0  0  0  0  0  0  0
  125.8310  119.3310   89.3820 H   0  0  0  0  0  0  0  0  0  0  0  0
  126.6816  122.8535   87.0330 H   0  0  0  0  0  0  0  0  0  0  0  0
  124.3838  123.7173   87.4861 H   0  0  0  0  0  0  0  0  0  0  0  0
  1  2  2  0
  2  3  1  0
  3  4  1  0
  4  5  1  0
  5  6  1  0
  6  7  2  0
  7  8  1  0
  8  9  2  0
  9 10  1  0
  9 11  1  0
 11 12  2  0
  2 13  1  0
 13 14  1  0
 13 15  1  0
 13 16  1  0
 12  6  1  0
  3 17  1  0
  4 18  1  0
  4 19  1  0
  5 20  1  0
  5 21  1  0
  7 22  1  0
  8 23  1  0
 11 24  1  0
 12 25  1  0
M  END
>  <loss>  (21) 
0.5132217407226562

>  <score>  (21) 
5.092885494232178

$$$$
YORSTRKUMCJZFJ-UHFFFAOYSA-N
     RDKit          3D

 25 25  0  0  0  0  0  0  0  0999 V2000
  119.4278  122.2446   86.3634 O   0  0  0  0  0  0  0  0  0  0  0  0
  120.2855  122.8690   85.7353 C   0  0  0  0  0  0  0  0  0  0  0  0
  121.5521  123.0754   86.2830 N   0  0  0  0  0  0  0  0  0  0  0  0
  121.7237  123.2755   87.7125 C   0  0  0  0  0  0  0  0  0  0  0  0
  122.1103  121.9875   88.4446 C   0  0  0  0  0  0  0  0  0  0  0  0
  123.5982  121.7176   88.4273 C   0  0  0  0  0  0  0  0  0  0  0  0
  124.1133  120.5363   88.9835 C   0  0  0  0  0  0  0  0  0  0  0  0
  125.4885  120.2991   88.9839 C   0  0  0  0  0  0  0  0  0  0  0  0
  126.3471  121.2396   88.4285 C   0  0  0  0  0  0  0  0  0  0  0  0
  127.6667  121.0106   88.4303 F   0  0  0  0  0  0  0  0  0  0  0  0
  125.8570  122.4139   87.8709 C   0  0  0  0  0  0  0  0  0  0  0  0
  124.4824  122.6540   87.8685 C   0  0  0  0  0  0  0  0  0  0  0  0
  120.0781  123.4078   84.2929 C   0  0  0  0  0  0  0  0  0  0  0  0
  120.6906  122.2466   83.0942 Cl  0  0  0  0  0  0  0  0  0  0  0  0
  118.3308  123.6814   84.0077 Cl  0  0  0  0  0  0  0  0  0  0  0  0
  120.9516  124.9569   84.1591 Cl  0  0  0  0  0  0  0  0  0  0  0  0
  122.3767  123.0861   85.6659 H   0  0  0  0  0  0  0  0  0  0  0  0
  122.5156  124.0224   87.8712 H   0  0  0  0  0  0  0  0  0  0  0  0
  120.7596  123.6141   88.1198 H   0  0  0  0  0  0  0  0  0  0  0  0
  121.7815  122.0678   89.4913 H   0  0  0  0  0  0  0  0  0  0  0  0
  121.6200  121.1535   87.9211 H   0  0  0  0  0  0  0  0  0  0  0  0
  123.4297  119.7940   89.4213 H   0  0  0  0  0  0  0  0  0  0  0  0
  125.8901  119.3731   89.4211 H   0  0  0  0  0  0  0  0  0  0  0  0
  126.5481  123.1497   87.4340 H   0  0  0  0  0  0  0  0  0  0  0  0
  124.0897  123.5817   87.4266 H   0  0  0  0  0  0  0  0  0  0  0  0
  1  2  2  0
  2  3  1  0
  3  4  1  0
  4  5  1  0
  5  6  1  0
  6  7  2  0
  7  8  1  0
  8  9  2  0
  9 10  1  0
  9 11  1  0
 11 12  2  0
  2 13  1  0
 13 14  1  0
 13 15  1  0
 13 16  1  0
 12  6  1  0
  3 17  1  0
  4 18  1  0
  4 19  1  0
  5 20  1  0
  5 21  1  0
  7 22  1  0
  8 23  1  0
 11 24  1  0
 12 25  1  0
M  END
>  <loss>  (22) 
0.5334850549697876

>  <score>  (22) 
5.156521797180176

$$$$
YORSTRKUMCJZFJ-UHFFFAOYSA-N
     RDKit          3D

 25 25  0  0  0  0  0  0  0  0999 V2000
  120.7336  121.4611   85.0608 O   0  0  0  0  0  0  0  0  0  0  0  0
  120.6449  122.6219   85.4671 C   0  0  0  0  0  0  0  0  0  0  0  0
  121.0721  122.9498   86.7533 N   0  0  0  0  0  0  0  0  0  0  0  0
  121.3814  121.9315   87.7411 C   0  0  0  0  0  0  0  0  0  0  0  0
  122.2896  122.4611   88.8535 C   0  0  0  0  0  0  0  0  0  0  0  0
  123.7185  122.0146   88.6677 C   0  0  0  0  0  0  0  0  0  0  0  0
  124.1229  120.7314   89.0654 C   0  0  0  0  0  0  0  0  0  0  0  0
  125.4423  120.3191   88.8736 C   0  0  0  0  0  0  0  0  0  0  0  0
  126.3536  121.1861   88.2825 C   0  0  0  0  0  0  0  0  0  0  0  0
  127.6190  120.7874   88.0986 F   0  0  0  0  0  0  0  0  0  0  0  0
  125.9710  122.4590   87.8779 C   0  0  0  0  0  0  0  0  0  0  0  0
  124.6527  122.8742   88.0686 C   0  0  0  0  0  0  0  0  0  0  0  0
  120.0203  123.7808   84.6426 C   0  0  0  0  0  0  0  0  0  0  0  0
  119.4012  123.1867   83.0863 Cl  0  0  0  0  0  0  0  0  0  0  0  0
  121.2687  125.0299   84.3432 Cl  0  0  0  0  0  0  0  0  0  0  0  0
  118.6971  124.4849   85.6089 Cl  0  0  0  0  0  0  0  0  0  0  0  0
  121.1710  123.9424   87.0099 H   0  0  0  0  0  0  0  0  0  0  0  0
  120.4419  121.5766   88.1899 H   0  0  0  0  0  0  0  0  0  0  0  0
  121.9143  121.1163   87.2299 H   0  0  0  0  0  0  0  0  0  0  0  0
  122.2562  123.5606   88.8478 H   0  0  0  0  0  0  0  0  0  0  0  0
  121.9272  122.0605   89.8117 H   0  0  0  0  0  0  0  0  0  0  0  0
  123.3972  120.0477   89.5302 H   0  0  0  0  0  0  0  0  0  0  0  0
  125.7592  119.3139   89.1884 H   0  0  0  0  0  0  0  0  0  0  0  0
  126.7023  123.1347   87.4105 H   0  0  0  0  0  0  0  0  0  0  0  0
  124.3438  123.8800   87.7478 H   0  0  0  0  0  0  0  0  0  0  0  0
  1  2  2  0
  2  3  1  0
  3  4  1  0
  4  5  1  0
  5  6  1  0
  6  7  2  0
  7  8  1  0
  8  9  2  0
  9 10  1  0
  9 11  1  0
 11 12  2  0
  2 13  1  0
 13 14  1  0
 13 15  1  0
 13 16  1  0
 12  6  1  0
  3 17  1  0
  4 18  1  0
  4 19  1  0
  5 20  1  0
  5 21  1  0
  7 22  1  0
  8 23  1  0
 11 24  1  0
 12 25  1  0
M  END
>  <loss>  (23) 
0.548099935054779

>  <score>  (23) 
5.025245189666748

$$$$
YORSTRKUMCJZFJ-UHFFFAOYSA-N
     RDKit          3D

 25 25  0  0  0  0  0  0  0  0999 V2000
  121.8507  122.6942   85.0322 O   0  0  0  0  0  0  0  0  0  0  0  0
  120.7981  122.9953   85.5994 C   0  0  0  0  0  0  0  0  0  0  0  0
  120.6909  122.8841   86.9852 N   0  0  0  0  0  0  0  0  0  0  0  0
  121.3183  121.7988   87.7179 C   0  0  0  0  0  0  0  0  0  0  0  0
  122.2008  122.3062   88.8609 C   0  0  0  0  0  0  0  0  0  0  0  0
  123.6465  121.9244   88.6620 C   0  0  0  0  0  0  0  0  0  0  0  0
  124.1009  120.6434   89.0096 C   0  0  0  0  0  0  0  0  0  0  0  0
  125.4360  120.2916   88.8056 C   0  0  0  0  0  0  0  0  0  0  0  0
  126.3130  121.2169   88.2523 C   0  0  0  0  0  0  0  0  0  0  0  0
  127.5936  120.8762   88.0566 F   0  0  0  0  0  0  0  0  0  0  0  0
  125.8808  122.4887   87.8975 C   0  0  0  0  0  0  0  0  0  0  0  0
  124.5468  122.8435   88.1005 C   0  0  0  0  0  0  0  0  0  0  0  0
  119.5157  123.4560   84.8535 C   0  0  0  0  0  0  0  0  0  0  0  0
  119.8778  123.8515   83.1592 Cl  0  0  0  0  0  0  0  0  0  0  0  0
  118.8492  124.9052   85.6685 Cl  0  0  0  0  0  0  0  0  0  0  0  0
  118.3284  122.1282   84.9410 Cl  0  0  0  0  0  0  0  0  0  0  0  0
  120.1514  123.5919   87.5038 H   0  0  0  0  0  0  0  0  0  0  0  0
  120.5322  121.1535   88.1370 H   0  0  0  0  0  0  0  0  0  0  0  0
  121.9599  121.2449   87.0167 H   0  0  0  0  0  0  0  0  0  0  0  0
  122.1252  123.4025   88.9099 H   0  0  0  0  0  0  0  0  0  0  0  0
  121.8499  121.8445   89.7957 H   0  0  0  0  0  0  0  0  0  0  0  0
  123.4022  119.9135   89.4445 H   0  0  0  0  0  0  0  0  0  0  0  0
  125.7920  119.2879   89.0811 H   0  0  0  0  0  0  0  0  0  0  0  0
  126.5855  123.2110   87.4597 H   0  0  0  0  0  0  0  0  0  0  0  0
  124.1988  123.8483   87.8190 H   0  0  0  0  0  0  0  0  0  0  0  0
  1  2  2  0
  2  3  1  0
  3  4  1  0
  4  5  1  0
  5  6  1  0
  6  7  2  0
  7  8  1  0
  8  9  2  0
  9 10  1  0
  9 11  1  0
 11 12  2  0
  2 13  1  0
 13 14  1  0
 13 15  1  0
 13 16  1  0
 12  6  1  0
  3 17  1  0
  4 18  1  0
  4 19  1  0
  5 20  1  0
  5 21  1  0
  7 22  1  0
  8 23  1  0
 11 24  1  0
 12 25  1  0
M  END
>  <loss>  (24) 
0.5581375956535339

>  <score>  (24) 
5.073868274688721

$$$$
YORSTRKUMCJZFJ-UHFFFAOYSA-N
     RDKit          3D

 25 25  0  0  0  0  0  0  0  0999 V2000
  120.4458  121.3964   85.2195 O   0  0  0  0  0  0  0  0  0  0  0  0
  120.5351  122.5868   85.5281 C   0  0  0  0  0  0  0  0  0  0  0  0
  121.1067  122.9553   86.7454 N   0  0  0  0  0  0  0  0  0  0  0  0
  121.3359  121.9919   87.8074 C   0  0  0  0  0  0  0  0  0  0  0  0
  122.2841  122.5296   88.8820 C   0  0  0  0  0  0  0  0  0  0  0  0
  123.6943  122.0329   88.6814 C   0  0  0  0  0  0  0  0  0  0  0  0
  124.0791  120.7679   89.1505 C   0  0  0  0  0  0  0  0  0  0  0  0
  125.3806  120.3079   88.9451 C   0  0  0  0  0  0  0  0  0  0  0  0
  126.2933  121.1090   88.2694 C   0  0  0  0  0  0  0  0  0  0  0  0
  127.5415  120.6646   88.0727 F   0  0  0  0  0  0  0  0  0  0  0  0
  125.9298  122.3627   87.7935 C   0  0  0  0  0  0  0  0  0  0  0  0
  124.6295  122.8254   87.9975 C   0  0  0  0  0  0  0  0  0  0  0  0
  119.9898  123.7494   84.6540 C   0  0  0  0  0  0  0  0  0  0  0  0
  119.3037  123.1305   83.1360 Cl  0  0  0  0  0  0  0  0  0  0  0  0
  121.3266  124.8812   84.2793 Cl  0  0  0  0  0  0  0  0  0  0  0  0
  118.7396  124.6007   85.5987 Cl  0  0  0  0  0  0  0  0  0  0  0  0
  121.3740  123.9386   86.8955 H   0  0  0  0  0  0  0  0  0  0  0  0
  120.3718  121.7462   88.2767 H   0  0  0  0  0  0  0  0  0  0  0  0
  121.8024  121.1017   87.3605 H   0  0  0  0  0  0  0  0  0  0  0  0
  122.2840  123.6288   88.8398 H   0  0  0  0  0  0  0  0  0  0  0  0
  121.9309  122.1724   89.8606 H   0  0  0  0  0  0  0  0  0  0  0  0
  123.3522  120.1362   89.6821 H   0  0  0  0  0  0  0  0  0  0  0  0
  125.6822  119.3171   89.3157 H   0  0  0  0  0  0  0  0  0  0  0  0
  126.6622  122.9861   87.2596 H   0  0  0  0  0  0  0  0  0  0  0  0
  124.3357  123.8162   87.6206 H   0  0  0  0  0  0  0  0  0  0  0  0
  1  2  2  0
  2  3  1  0
  3  4  1  0
  4  5  1  0
  5  6  1  0
  6  7  2  0
  7  8  1  0
  8  9  2  0
  9 10  1  0
  9 11  1  0
 11 12  2  0
  2 13  1  0
 13 14  1  0
 13 15  1  0
 13 16  1  0
 12  6  1  0
  3 17  1  0
  4 18  1  0
  4 19  1  0
  5 20  1  0
  5 21  1  0
  7 22  1  0
  8 23  1  0
 11 24  1  0
 12 25  1  0
M  END
>  <loss>  (25) 
0.5488192439079285

>  <score>  (25) 
4.974192142486572

$$$$
