YRUQQTOSETWSHS-UHFFFAOYSA-N
     RDKit          3D

 28 28  0  0  0  0  0  0  0  0999 V2000
  117.1170  122.8857   82.2402 C   0  0  0  0  0  0  0  0  0  0  0  0
  116.7759  122.8000   83.7178 C   0  0  0  0  0  0  0  0  0  0  0  0
  117.7353  123.5295   84.5403 N   0  0  0  0  0  0  0  0  0  0  0  0
  119.1029  123.6583   84.3141 C   0  0  0  0  0  0  0  0  0  0  0  0
  119.8076  123.6204   82.7989 S   0  0  0  0  0  0  0  0  0  0  0  0
  119.7528  123.7453   85.5406 N   0  0  0  0  0  0  0  0  0  0  0  0
  120.8964  123.0825   86.0362 C   0  0  0  0  0  0  0  0  0  0  0  0
  120.8330  122.5929   87.3447 C   0  0  0  0  0  0  0  0  0  0  0  0
  121.9327  121.9470   87.9189 C   0  0  0  0  0  0  0  0  0  0  0  0
  123.1225  121.7928   87.2055 C   0  0  0  0  0  0  0  0  0  0  0  0
  124.1112  121.1441   87.8861 O   0  0  0  0  0  0  0  0  0  0  0  0
  125.4515  121.5229   87.6242 C   0  0  0  0  0  0  0  0  0  0  0  0
  125.8617  121.0715   86.4200 F   0  0  0  0  0  0  0  0  0  0  0  0
  125.5988  122.8640   87.6795 F   0  0  0  0  0  0  0  0  0  0  0  0
  126.2473  120.9758   88.5702 F   0  0  0  0  0  0  0  0  0  0  0  0
  123.1994  122.3039   85.9118 C   0  0  0  0  0  0  0  0  0  0  0  0
  122.0951  122.9510   85.3363 C   0  0  0  0  0  0  0  0  0  0  0  0
  118.1778  123.1524   82.1236 H   0  0  0  0  0  0  0  0  0  0  0  0
  116.9290  121.9124   81.7634 H   0  0  0  0  0  0  0  0  0  0  0  0
  116.4911  123.6545   81.7634 H   0  0  0  0  0  0  0  0  0  0  0  0
  115.7744  123.2261   83.8770 H   0  0  0  0  0  0  0  0  0  0  0  0
  116.8079  121.7412   84.0144 H   0  0  0  0  0  0  0  0  0  0  0  0
  117.3609  123.9990   85.3772 H   0  0  0  0  0  0  0  0  0  0  0  0
  119.3253  124.4086   86.2025 H   0  0  0  0  0  0  0  0  0  0  0  0
  119.9089  122.7172   87.9283 H   0  0  0  0  0  0  0  0  0  0  0  0
  121.8591  121.5560   88.9444 H   0  0  0  0  0  0  0  0  0  0  0  0
  124.1319  122.1995   85.3377 H   0  0  0  0  0  0  0  0  0  0  0  0
  122.1764  123.3604   84.3185 H   0  0  0  0  0  0  0  0  0  0  0  0
  1  2  1  0
  2  3  1  0
  3  4  1  0
  4  5  2  0
  4  6  1  0
  6  7  1  0
  7  8  2  0
  8  9  1  0
  9 10  2  0
 10 11  1  0
 11 12  1  0
 12 13  1  0
 12 14  1  0
 12 15  1  0
 10 16  1  0
 16 17  2  0
 17  7  1  0
  1 18  1  0
  1 19  1  0
  1 20  1  0
  2 21  1  0
  2 22  1  0
  3 23  1  0
  6 24  1  0
  8 25  1  0
  9 26  1  0
 16 27  1  0
 17 28  1  0
M  END
>  <loss>  (1) 
0.5010392069816589

>  <score>  (1) 
2.984877347946167

$$$$
YRUQQTOSETWSHS-UHFFFAOYSA-N
     RDKit          3D

 28 28  0  0  0  0  0  0  0  0999 V2000
  116.3590  121.6971   83.4143 C   0  0  0  0  0  0  0  0  0  0  0  0
  116.8104  123.1462   83.3572 C   0  0  0  0  0  0  0  0  0  0  0  0
  117.7815  123.4546   84.4018 N   0  0  0  0  0  0  0  0  0  0  0  0
  119.1496  123.6544   84.2389 C   0  0  0  0  0  0  0  0  0  0  0  0
  119.8964  123.8465   82.7560 S   0  0  0  0  0  0  0  0  0  0  0  0
  119.7422  123.7357   85.4945 N   0  0  0  0  0  0  0  0  0  0  0  0
  120.8938  123.1122   86.0215 C   0  0  0  0  0  0  0  0  0  0  0  0
  120.8054  122.6031   87.3211 C   0  0  0  0  0  0  0  0  0  0  0  0
  121.8938  121.9480   87.9063 C   0  0  0  0  0  0  0  0  0  0  0  0
  123.0850  121.7723   87.2003 C   0  0  0  0  0  0  0  0  0  0  0  0
  124.0623  121.1182   87.8919 O   0  0  0  0  0  0  0  0  0  0  0  0
  125.4003  121.5495   87.7121 C   0  0  0  0  0  0  0  0  0  0  0  0
  125.8644  121.2031   86.4924 F   0  0  0  0  0  0  0  0  0  0  0  0
  125.5108  122.8847   87.8765 F   0  0  0  0  0  0  0  0  0  0  0  0
  126.1764  120.9472   88.6410 F   0  0  0  0  0  0  0  0  0  0  0  0
  123.1679  122.2529   85.8953 C   0  0  0  0  0  0  0  0  0  0  0  0
  122.0755  122.9109   85.3094 C   0  0  0  0  0  0  0  0  0  0  0  0
  116.2616  121.3845   84.4644 H   0  0  0  0  0  0  0  0  0  0  0  0
  115.3867  121.5958   82.9099 H   0  0  0  0  0  0  0  0  0  0  0  0
  117.1017  121.0616   82.9099 H   0  0  0  0  0  0  0  0  0  0  0  0
  117.2703  123.3372   82.3764 H   0  0  0  0  0  0  0  0  0  0  0  0
  115.9282  123.7847   83.5123 H   0  0  0  0  0  0  0  0  0  0  0  0
  117.4159  123.5329   85.3616 H   0  0  0  0  0  0  0  0  0  0  0  0
  119.2562  124.3593   86.1547 H   0  0  0  0  0  0  0  0  0  0  0  0
  119.8704  122.7191   87.8887 H   0  0  0  0  0  0  0  0  0  0  0  0
  121.8100  121.5670   88.9348 H   0  0  0  0  0  0  0  0  0  0  0  0
  124.0956  122.1158   85.3205 H   0  0  0  0  0  0  0  0  0  0  0  0
  122.1527  123.2730   84.2735 H   0  0  0  0  0  0  0  0  0  0  0  0
  1  2  1  0
  2  3  1  0
  3  4  1  0
  4  5  2  0
  4  6  1  0
  6  7  1  0
  7  8  2  0
  8  9  1  0
  9 10  2  0
 10 11  1  0
 11 12  1  0
 12 13  1  0
 12 14  1  0
 12 15  1  0
 10 16  1  0
 16 17  2  0
 17  7  1  0
  1 18  1  0
  1 19  1  0
  1 20  1  0
  2 21  1  0
  2 22  1  0
  3 23  1  0
  6 24  1  0
  8 25  1  0
  9 26  1  0
 16 27  1  0
 17 28  1  0
M  END
>  <loss>  (2) 
0.49820253252983093

>  <score>  (2) 
2.9515225887298584

$$$$
YRUQQTOSETWSHS-UHFFFAOYSA-N
     RDKit          3D

 28 28  0  0  0  0  0  0  0  0999 V2000
  116.3780  121.7261   83.3820 C   0  0  0  0  0  0  0  0  0  0  0  0
  116.8251  123.1773   83.3467 C   0  0  0  0  0  0  0  0  0  0  0  0
  117.7878  123.4753   84.4019 N   0  0  0  0  0  0  0  0  0  0  0  0
  119.1593  123.6629   84.2537 C   0  0  0  0  0  0  0  0  0  0  0  0
  119.9209  123.8698   82.7803 S   0  0  0  0  0  0  0  0  0  0  0  0
  119.7419  123.7186   85.5153 N   0  0  0  0  0  0  0  0  0  0  0  0
  120.8983  123.0968   86.0340 C   0  0  0  0  0  0  0  0  0  0  0  0
  120.8196  122.5866   87.3338 C   0  0  0  0  0  0  0  0  0  0  0  0
  121.9131  121.9331   87.9111 C   0  0  0  0  0  0  0  0  0  0  0  0
  123.0999  121.7602   87.1969 C   0  0  0  0  0  0  0  0  0  0  0  0
  124.0831  121.1074   87.8814 O   0  0  0  0  0  0  0  0  0  0  0  0
  125.4156  121.5615   87.7171 C   0  0  0  0  0  0  0  0  0  0  0  0
  125.9312  121.1442   86.5410 F   0  0  0  0  0  0  0  0  0  0  0  0
  125.4870  122.9073   87.7910 F   0  0  0  0  0  0  0  0  0  0  0  0
  126.1727  121.0463   88.7116 F   0  0  0  0  0  0  0  0  0  0  0  0
  123.1730  122.2420   85.8918 C   0  0  0  0  0  0  0  0  0  0  0  0
  122.0755  122.8984   85.3138 C   0  0  0  0  0  0  0  0  0  0  0  0
  116.2772  121.3988   84.4273 H   0  0  0  0  0  0  0  0  0  0  0  0
  115.4082  121.6287   82.8721 H   0  0  0  0  0  0  0  0  0  0  0  0
  117.1249  121.0998   82.8721 H   0  0  0  0  0  0  0  0  0  0  0  0
  117.2911  123.3823   82.3716 H   0  0  0  0  0  0  0  0  0  0  0  0
  115.9397  123.8109   83.5038 H   0  0  0  0  0  0  0  0  0  0  0  0
  117.4129  123.5554   85.3579 H   0  0  0  0  0  0  0  0  0  0  0  0
  119.2428  124.3177   86.1883 H   0  0  0  0  0  0  0  0  0  0  0  0
  119.8882  122.7003   87.9078 H   0  0  0  0  0  0  0  0  0  0  0  0
  121.8371  121.5511   88.9398 H   0  0  0  0  0  0  0  0  0  0  0  0
  124.0971  122.1071   85.3106 H   0  0  0  0  0  0  0  0  0  0  0  0
  122.1450  123.2614   84.2777 H   0  0  0  0  0  0  0  0  0  0  0  0
  1  2  1  0
  2  3  1  0
  3  4  1  0
  4  5  2  0
  4  6  1  0
  6  7  1  0
  7  8  2  0
  8  9  1  0
  9 10  2  0
 10 11  1  0
 11 12  1  0
 12 13  1  0
 12 14  1  0
 12 15  1  0
 10 16  1  0
 16 17  2  0
 17  7  1  0
  1 18  1  0
  1 19  1  0
  1 20  1  0
  2 21  1  0
  2 22  1  0
  3 23  1  0
  6 24  1  0
  8 25  1  0
  9 26  1  0
 16 27  1  0
 17 28  1  0
M  END
>  <loss>  (3) 
0.4983521103858948

>  <score>  (3) 
2.9508190155029297

$$$$
YRUQQTOSETWSHS-UHFFFAOYSA-N
     RDKit          3D

 28 28  0  0  0  0  0  0  0  0999 V2000
  117.0957  122.8798   82.2589 C   0  0  0  0  0  0  0  0  0  0  0  0
  116.7468  122.8182   83.7359 C   0  0  0  0  0  0  0  0  0  0  0  0
  117.7217  123.5309   84.5550 N   0  0  0  0  0  0  0  0  0  0  0  0
  119.0834  123.6713   84.3016 C   0  0  0  0  0  0  0  0  0  0  0  0
  119.7598  123.6242   82.7738 S   0  0  0  0  0  0  0  0  0  0  0  0
  119.7552  123.7781   85.5146 N   0  0  0  0  0  0  0  0  0  0  0  0
  120.8888  123.1001   86.0128 C   0  0  0  0  0  0  0  0  0  0  0  0
  120.8191  122.6192   87.3242 C   0  0  0  0  0  0  0  0  0  0  0  0
  121.9091  121.9592   87.9009 C   0  0  0  0  0  0  0  0  0  0  0  0
  123.0955  121.7820   87.1871 C   0  0  0  0  0  0  0  0  0  0  0  0
  124.0745  121.1216   87.8704 O   0  0  0  0  0  0  0  0  0  0  0  0
  125.4190  121.4972   87.6257 C   0  0  0  0  0  0  0  0  0  0  0  0
  125.8234  121.1001   86.4007 F   0  0  0  0  0  0  0  0  0  0  0  0
  125.5818  122.8322   87.7460 F   0  0  0  0  0  0  0  0  0  0  0  0
  126.2089  120.8956   88.5432 F   0  0  0  0  0  0  0  0  0  0  0  0
  123.1790  122.2844   85.8904 C   0  0  0  0  0  0  0  0  0  0  0  0
  122.0844  122.9457   85.3123 C   0  0  0  0  0  0  0  0  0  0  0  0
  118.1731  123.0701   82.1443 H   0  0  0  0  0  0  0  0  0  0  0  0
  116.8396  121.9225   81.7814 H   0  0  0  0  0  0  0  0  0  0  0  0
  116.5272  123.6914   81.7814 H   0  0  0  0  0  0  0  0  0  0  0  0
  115.7561  123.2718   83.8866 H   0  0  0  0  0  0  0  0  0  0  0  0
  116.7500  121.7620   84.0434 H   0  0  0  0  0  0  0  0  0  0  0  0
  117.3644  123.9776   85.4116 H   0  0  0  0  0  0  0  0  0  0  0  0
  119.3563  124.4727   86.1621 H   0  0  0  0  0  0  0  0  0  0  0  0
  119.8978  122.7614   87.9080 H   0  0  0  0  0  0  0  0  0  0  0  0
  121.8304  121.5753   88.9287 H   0  0  0  0  0  0  0  0  0  0  0  0
  124.1090  122.1620   85.3159 H   0  0  0  0  0  0  0  0  0  0  0  0
  122.1710  123.3478   84.2922 H   0  0  0  0  0  0  0  0  0  0  0  0
  1  2  1  0
  2  3  1  0
  3  4  1  0
  4  5  2  0
  4  6  1  0
  6  7  1  0
  7  8  2  0
  8  9  1  0
  9 10  2  0
 10 11  1  0
 11 12  1  0
 12 13  1  0
 12 14  1  0
 12 15  1  0
 10 16  1  0
 16 17  2  0
 17  7  1  0
  1 18  1  0
  1 19  1  0
  1 20  1  0
  2 21  1  0
  2 22  1  0
  3 23  1  0
  6 24  1  0
  8 25  1  0
  9 26  1  0
 16 27  1  0
 17 28  1  0
M  END
>  <loss>  (4) 
0.5012429356575012

>  <score>  (4) 
2.9586145877838135

$$$$
YRUQQTOSETWSHS-UHFFFAOYSA-N
     RDKit          3D

 28 28  0  0  0  0  0  0  0  0999 V2000
  116.2164  121.7513   83.5920 C   0  0  0  0  0  0  0  0  0  0  0  0
  116.9144  123.0714   83.3240 C   0  0  0  0  0  0  0  0  0  0  0  0
  117.8094  123.4212   84.4195 N   0  0  0  0  0  0  0  0  0  0  0  0
  119.1489  123.6643   84.3056 C   0  0  0  0  0  0  0  0  0  0  0  0
  119.9835  123.8677   82.8706 S   0  0  0  0  0  0  0  0  0  0  0  0
  119.8546  123.8000   85.4685 N   0  0  0  0  0  0  0  0  0  0  0  0
  120.9378  123.0734   86.0020 C   0  0  0  0  0  0  0  0  0  0  0  0
  120.8355  122.6644   87.3360 C   0  0  0  0  0  0  0  0  0  0  0  0
  121.8693  121.9481   87.9542 C   0  0  0  0  0  0  0  0  0  0  0  0
  123.0319  121.6472   87.2483 C   0  0  0  0  0  0  0  0  0  0  0  0
  124.1158  120.9630   87.7163 O   0  0  0  0  0  0  0  0  0  0  0  0
  125.3511  121.6532   87.7923 C   0  0  0  0  0  0  0  0  0  0  0  0
  125.9056  121.6866   86.5604 F   0  0  0  0  0  0  0  0  0  0  0  0
  125.1740  122.9256   88.2075 F   0  0  0  0  0  0  0  0  0  0  0  0
  126.2107  121.0236   88.6219 F   0  0  0  0  0  0  0  0  0  0  0  0
  123.1478  122.0815   85.9256 C   0  0  0  0  0  0  0  0  0  0  0  0
  122.1142  122.7951   85.3077 C   0  0  0  0  0  0  0  0  0  0  0  0
  116.1333  121.5942   84.6775 H   0  0  0  0  0  0  0  0  0  0  0  0
  115.2109  121.7712   83.1464 H   0  0  0  0  0  0  0  0  0  0  0  0
  116.7988  120.9315   83.1464 H   0  0  0  0  0  0  0  0  0  0  0  0
  117.4983  122.9875   82.3955 H   0  0  0  0  0  0  0  0  0  0  0  0
  116.1516  123.8583   83.2301 H   0  0  0  0  0  0  0  0  0  0  0  0
  117.3966  123.4913   85.3606 H   0  0  0  0  0  0  0  0  0  0  0  0
  119.5357  124.5768   86.0649 H   0  0  0  0  0  0  0  0  0  0  0  0
  119.9289  122.9090   87.9089 H   0  0  0  0  0  0  0  0  0  0  0  0
  121.7624  121.6226   88.9996 H   0  0  0  0  0  0  0  0  0  0  0  0
  124.0653  121.8592   85.3610 H   0  0  0  0  0  0  0  0  0  0  0  0
  122.2308  123.1380   84.2691 H   0  0  0  0  0  0  0  0  0  0  0  0
  1  2  1  0
  2  3  1  0
  3  4  1  0
  4  5  2  0
  4  6  1  0
  6  7  1  0
  7  8  2  0
  8  9  1  0
  9 10  2  0
 10 11  1  0
 11 12  1  0
 12 13  1  0
 12 14  1  0
 12 15  1  0
 10 16  1  0
 16 17  2  0
 17  7  1  0
  1 18  1  0
  1 19  1  0
  1 20  1  0
  2 21  1  0
  2 22  1  0
  3 23  1  0
  6 24  1  0
  8 25  1  0
  9 26  1  0
 16 27  1  0
 17 28  1  0
M  END
>  <loss>  (5) 
0.5060924291610718

>  <score>  (5) 
2.7337512969970703

$$$$
YRUQQTOSETWSHS-UHFFFAOYSA-N
     RDKit          3D

 28 28  0  0  0  0  0  0  0  0999 V2000
  116.2381  121.7704   83.5237 C   0  0  0  0  0  0  0  0  0  0  0  0
  116.9365  123.0992   83.3045 C   0  0  0  0  0  0  0  0  0  0  0  0
  117.8272  123.4110   84.4148 N   0  0  0  0  0  0  0  0  0  0  0  0
  119.1628  123.6791   84.3118 C   0  0  0  0  0  0  0  0  0  0  0  0
  119.9995  123.9275   82.8851 S   0  0  0  0  0  0  0  0  0  0  0  0
  119.8616  123.8017   85.4804 N   0  0  0  0  0  0  0  0  0  0  0  0
  120.9445  123.0720   86.0101 C   0  0  0  0  0  0  0  0  0  0  0  0
  120.8438  122.6595   87.3432 C   0  0  0  0  0  0  0  0  0  0  0  0
  121.8775  121.9399   87.9577 C   0  0  0  0  0  0  0  0  0  0  0  0
  123.0385  121.6391   87.2490 C   0  0  0  0  0  0  0  0  0  0  0  0
  124.1220  120.9519   87.7133 O   0  0  0  0  0  0  0  0  0  0  0  0
  125.3532  121.6467   87.8118 C   0  0  0  0  0  0  0  0  0  0  0  0
  125.9292  121.6835   86.5898 F   0  0  0  0  0  0  0  0  0  0  0  0
  125.1639  122.9181   88.2249 F   0  0  0  0  0  0  0  0  0  0  0  0
  126.2004  121.0197   88.6559 F   0  0  0  0  0  0  0  0  0  0  0  0
  123.1528  122.0768   85.9273 C   0  0  0  0  0  0  0  0  0  0  0  0
  122.1193  122.7937   85.3131 C   0  0  0  0  0  0  0  0  0  0  0  0
  116.1391  121.5818   84.6029 H   0  0  0  0  0  0  0  0  0  0  0  0
  115.2395  121.8007   83.0636 H   0  0  0  0  0  0  0  0  0  0  0  0
  116.8296  120.9651   83.0636 H   0  0  0  0  0  0  0  0  0  0  0  0
  117.5237  123.0480   82.3758 H   0  0  0  0  0  0  0  0  0  0  0  0
  116.1735  123.8886   83.2353 H   0  0  0  0  0  0  0  0  0  0  0  0
  117.4144  123.4309   85.3583 H   0  0  0  0  0  0  0  0  0  0  0  0
  119.5365  124.5693   86.0854 H   0  0  0  0  0  0  0  0  0  0  0  0
  119.9385  122.9040   87.9183 H   0  0  0  0  0  0  0  0  0  0  0  0
  121.7719  121.6118   89.0023 H   0  0  0  0  0  0  0  0  0  0  0  0
  124.0690  121.8546   85.3606 H   0  0  0  0  0  0  0  0  0  0  0  0
  122.2347  123.1393   84.2752 H   0  0  0  0  0  0  0  0  0  0  0  0
  1  2  1  0
  2  3  1  0
  3  4  1  0
  4  5  2  0
  4  6  1  0
  6  7  1  0
  7  8  2  0
  8  9  1  0
  9 10  2  0
 10 11  1  0
 11 12  1  0
 12 13  1  0
 12 14  1  0
 12 15  1  0
 10 16  1  0
 16 17  2  0
 17  7  1  0
  1 18  1  0
  1 19  1  0
  1 20  1  0
  2 21  1  0
  2 22  1  0
  3 23  1  0
  6 24  1  0
  8 25  1  0
  9 26  1  0
 16 27  1  0
 17 28  1  0
M  END
>  <loss>  (6) 
0.5061752200126648

>  <score>  (6) 
2.7332732677459717

$$$$
YRUQQTOSETWSHS-UHFFFAOYSA-N
     RDKit          3D

 28 28  0  0  0  0  0  0  0  0999 V2000
  116.6052  122.3564   82.8977 C   0  0  0  0  0  0  0  0  0  0  0  0
  117.7312  123.3720   82.9312 C   0  0  0  0  0  0  0  0  0  0  0  0
  117.8596  123.9817   84.2454 N   0  0  0  0  0  0  0  0  0  0  0  0
  118.5749  123.5096   85.3177 C   0  0  0  0  0  0  0  0  0  0  0  0
  117.6894  122.7489   86.5110 S   0  0  0  0  0  0  0  0  0  0  0  0
  119.9230  123.7620   85.2667 N   0  0  0  0  0  0  0  0  0  0  0  0
  121.0249  123.0861   85.8347 C   0  0  0  0  0  0  0  0  0  0  0  0
  120.9264  122.7359   87.1857 C   0  0  0  0  0  0  0  0  0  0  0  0
  121.9798  122.0830   87.8340 C   0  0  0  0  0  0  0  0  0  0  0  0
  123.1594  121.7810   87.1520 C   0  0  0  0  0  0  0  0  0  0  0  0
  124.1020  121.1435   87.9047 O   0  0  0  0  0  0  0  0  0  0  0  0
  125.4576  121.5108   87.7153 C   0  0  0  0  0  0  0  0  0  0  0  0
  125.5520  122.8581   87.7749 F   0  0  0  0  0  0  0  0  0  0  0  0
  125.9058  121.1140   86.5051 F   0  0  0  0  0  0  0  0  0  0  0  0
  126.2448  120.9932   88.6819 F   0  0  0  0  0  0  0  0  0  0  0  0
  123.2728  122.1511   85.8140 C   0  0  0  0  0  0  0  0  0  0  0  0
  122.2145  122.8054   85.1643 C   0  0  0  0  0  0  0  0  0  0  0  0
  116.3160  122.0956   83.9265 H   0  0  0  0  0  0  0  0  0  0  0  0
  115.7400  122.7855   82.3712 H   0  0  0  0  0  0  0  0  0  0  0  0
  116.9431  121.4516   82.3712 H   0  0  0  0  0  0  0  0  0  0  0  0
  118.6752  122.8677   82.6773 H   0  0  0  0  0  0  0  0  0  0  0  0
  117.5029  124.1648   82.2036 H   0  0  0  0  0  0  0  0  0  0  0  0
  117.3564  124.8690   84.3877 H   0  0  0  0  0  0  0  0  0  0  0  0
  120.1765  124.5940   84.7149 H   0  0  0  0  0  0  0  0  0  0  0  0
  120.0099  122.9767   87.7444 H   0  0  0  0  0  0  0  0  0  0  0  0
  121.8775  121.8044   88.8932 H   0  0  0  0  0  0  0  0  0  0  0  0
  124.1984  121.9290   85.2625 H   0  0  0  0  0  0  0  0  0  0  0  0
  122.3254  123.1011   84.1105 H   0  0  0  0  0  0  0  0  0  0  0  0
  1  2  1  0
  2  3  1  0
  3  4  1  0
  4  5  2  0
  4  6  1  0
  6  7  1  0
  7  8  2  0
  8  9  1  0
  9 10  2  0
 10 11  1  0
 11 12  1  0
 12 13  1  0
 12 14  1  0
 12 15  1  0
 10 16  1  0
 16 17  2  0
 17  7  1  0
  1 18  1  0
  1 19  1  0
  1 20  1  0
  2 21  1  0
  2 22  1  0
  3 23  1  0
  6 24  1  0
  8 25  1  0
  9 26  1  0
 16 27  1  0
 17 28  1  0
M  END
>  <loss>  (7) 
0.5417142510414124

>  <score>  (7) 
2.8982927799224854

$$$$
YRUQQTOSETWSHS-UHFFFAOYSA-N
     RDKit          3D

 28 28  0  0  0  0  0  0  0  0999 V2000
  116.6137  122.3301   82.9230 C   0  0  0  0  0  0  0  0  0  0  0  0
  117.7661  123.3162   82.9171 C   0  0  0  0  0  0  0  0  0  0  0  0
  117.9079  123.9773   84.2047 N   0  0  0  0  0  0  0  0  0  0  0  0
  118.6043  123.5300   85.2999 C   0  0  0  0  0  0  0  0  0  0  0  0
  117.6980  122.7955   86.4940 S   0  0  0  0  0  0  0  0  0  0  0  0
  119.9529  123.7824   85.2672 N   0  0  0  0  0  0  0  0  0  0  0  0
  121.0483  123.0975   85.8370 C   0  0  0  0  0  0  0  0  0  0  0  0
  120.9436  122.7456   87.1871 C   0  0  0  0  0  0  0  0  0  0  0  0
  121.9905  122.0839   87.8371 C   0  0  0  0  0  0  0  0  0  0  0  0
  123.1698  121.7747   87.1578 C   0  0  0  0  0  0  0  0  0  0  0  0
  124.1056  121.1290   87.9119 O   0  0  0  0  0  0  0  0  0  0  0  0
  125.4601  121.5166   87.7577 C   0  0  0  0  0  0  0  0  0  0  0  0
  125.5379  122.8625   87.8584 F   0  0  0  0  0  0  0  0  0  0  0  0
  125.9341  121.1607   86.5446 F   0  0  0  0  0  0  0  0  0  0  0  0
  126.2360  120.9793   88.7227 F   0  0  0  0  0  0  0  0  0  0  0  0
  123.2895  122.1463   85.8207 C   0  0  0  0  0  0  0  0  0  0  0  0
  122.2377  122.8094   85.1693 C   0  0  0  0  0  0  0  0  0  0  0  0
  116.3381  122.0944   83.9615 H   0  0  0  0  0  0  0  0  0  0  0  0
  115.7496  122.7729   82.4059 H   0  0  0  0  0  0  0  0  0  0  0  0
  116.9174  121.4080   82.4059 H   0  0  0  0  0  0  0  0  0  0  0  0
  118.6969  122.7768   82.6876 H   0  0  0  0  0  0  0  0  0  0  0  0
  117.5604  124.0832   82.1559 H   0  0  0  0  0  0  0  0  0  0  0  0
  117.4315  124.8848   84.3065 H   0  0  0  0  0  0  0  0  0  0  0  0
  120.2127  124.6223   84.7305 H   0  0  0  0  0  0  0  0  0  0  0  0
  120.0274  122.9920   87.7437 H   0  0  0  0  0  0  0  0  0  0  0  0
  121.8832  121.8042   88.8955 H   0  0  0  0  0  0  0  0  0  0  0  0
  124.2149  121.9185   85.2714 H   0  0  0  0  0  0  0  0  0  0  0  0
  122.3536  123.1062   84.1164 H   0  0  0  0  0  0  0  0  0  0  0  0
  1  2  1  0
  2  3  1  0
  3  4  1  0
  4  5  2  0
  4  6  1  0
  6  7  1  0
  7  8  2  0
  8  9  1  0
  9 10  2  0
 10 11  1  0
 11 12  1  0
 12 13  1  0
 12 14  1  0
 12 15  1  0
 10 16  1  0
 16 17  2  0
 17  7  1  0
  1 18  1  0
  1 19  1  0
  1 20  1  0
  2 21  1  0
  2 22  1  0
  3 23  1  0
  6 24  1  0
  8 25  1  0
  9 26  1  0
 16 27  1  0
 17 28  1  0
M  END
>  <loss>  (8) 
0.5416210293769836

>  <score>  (8) 
2.877845287322998

$$$$
YRUQQTOSETWSHS-UHFFFAOYSA-N
     RDKit          3D

 28 28  0  0  0  0  0  0  0  0999 V2000
  116.9046  122.4878   82.4953 C   0  0  0  0  0  0  0  0  0  0  0  0
  117.6830  123.6232   83.1341 C   0  0  0  0  0  0  0  0  0  0  0  0
  117.8078  123.4420   84.5711 N   0  0  0  0  0  0  0  0  0  0  0  0
  118.7573  123.9204   85.4354 C   0  0  0  0  0  0  0  0  0  0  0  0
  118.1850  124.8370   86.7082 S   0  0  0  0  0  0  0  0  0  0  0  0
  120.0459  123.5489   85.1464 N   0  0  0  0  0  0  0  0  0  0  0  0
  121.0342  122.8986   85.9176 C   0  0  0  0  0  0  0  0  0  0  0  0
  120.8977  122.5560   87.2618 C   0  0  0  0  0  0  0  0  0  0  0  0
  121.9443  121.9315   87.9586 C   0  0  0  0  0  0  0  0  0  0  0  0
  123.1509  121.6535   87.3207 C   0  0  0  0  0  0  0  0  0  0  0  0
  124.2458  121.0544   87.8717 O   0  0  0  0  0  0  0  0  0  0  0  0
  125.4975  121.7025   87.7242 C   0  0  0  0  0  0  0  0  0  0  0  0
  125.9556  121.4764   86.4725 F   0  0  0  0  0  0  0  0  0  0  0  0
  125.3782  123.0371   87.8904 F   0  0  0  0  0  0  0  0  0  0  0  0
  126.4061  121.2168   88.5963 F   0  0  0  0  0  0  0  0  0  0  0  0
  123.3010  122.0173   85.9820 C   0  0  0  0  0  0  0  0  0  0  0  0
  122.2577  122.6403   85.2893 C   0  0  0  0  0  0  0  0  0  0  0  0
  116.4697  121.8534   83.2817 H   0  0  0  0  0  0  0  0  0  0  0  0
  116.0992  122.9013   81.8706 H   0  0  0  0  0  0  0  0  0  0  0  0
  117.5808  121.8857   81.8706 H   0  0  0  0  0  0  0  0  0  0  0  0
  118.6886  123.6613   82.6901 H   0  0  0  0  0  0  0  0  0  0  0  0
  117.1379  124.5610   82.9508 H   0  0  0  0  0  0  0  0  0  0  0  0
  117.0713  122.8673   85.0050 H   0  0  0  0  0  0  0  0  0  0  0  0
  120.3482  123.7884   84.1913 H   0  0  0  0  0  0  0  0  0  0  0  0
  119.9557  122.7782   87.7844 H   0  0  0  0  0  0  0  0  0  0  0  0
  121.8104  121.6597   89.0161 H   0  0  0  0  0  0  0  0  0  0  0  0
  124.2503  121.8119   85.4657 H   0  0  0  0  0  0  0  0  0  0  0  0
  122.4007  122.9308   84.2380 H   0  0  0  0  0  0  0  0  0  0  0  0
  1  2  1  0
  2  3  1  0
  3  4  1  0
  4  5  2  0
  4  6  1  0
  6  7  1  0
  7  8  2  0
  8  9  1  0
  9 10  2  0
 10 11  1  0
 11 12  1  0
 12 13  1  0
 12 14  1  0
 12 15  1  0
 10 16  1  0
 16 17  2  0
 17  7  1  0
  1 18  1  0
  1 19  1  0
  1 20  1  0
  2 21  1  0
  2 22  1  0
  3 23  1  0
  6 24  1  0
  8 25  1  0
  9 26  1  0
 16 27  1  0
 17 28  1  0
M  END
>  <loss>  (9) 
0.5462192893028259

>  <score>  (9) 
2.7949812412261963

$$$$
YRUQQTOSETWSHS-UHFFFAOYSA-N
     RDKit          3D

 28 28  0  0  0  0  0  0  0  0999 V2000
  116.9688  122.4935   82.4787 C   0  0  0  0  0  0  0  0  0  0  0  0
  117.6897  123.6519   83.1434 C   0  0  0  0  0  0  0  0  0  0  0  0
  117.8117  123.4515   84.5780 N   0  0  0  0  0  0  0  0  0  0  0  0
  118.7568  123.9223   85.4513 C   0  0  0  0  0  0  0  0  0  0  0  0
  118.1770  124.8190   86.7349 S   0  0  0  0  0  0  0  0  0  0  0  0
  120.0478  123.5605   85.1608 N   0  0  0  0  0  0  0  0  0  0  0  0
  121.0372  122.9049   85.9260 C   0  0  0  0  0  0  0  0  0  0  0  0
  120.8965  122.5385   87.2635 C   0  0  0  0  0  0  0  0  0  0  0  0
  121.9444  121.9104   87.9552 C   0  0  0  0  0  0  0  0  0  0  0  0
  123.1564  121.6526   87.3190 C   0  0  0  0  0  0  0  0  0  0  0  0
  124.2531  121.0527   87.8654 O   0  0  0  0  0  0  0  0  0  0  0  0
  125.5067  121.6931   87.7012 C   0  0  0  0  0  0  0  0  0  0  0  0
  125.9515  121.4555   86.4469 F   0  0  0  0  0  0  0  0  0  0  0  0
  125.3960  123.0295   87.8588 F   0  0  0  0  0  0  0  0  0  0  0  0
  126.4211  121.2089   88.5681 F   0  0  0  0  0  0  0  0  0  0  0  0
  123.3104  122.0402   85.9874 C   0  0  0  0  0  0  0  0  0  0  0  0
  122.2659  122.6667   85.2999 C   0  0  0  0  0  0  0  0  0  0  0  0
  116.5547  121.8280   83.2505 H   0  0  0  0  0  0  0  0  0  0  0  0
  116.1521  122.8810   81.8520 H   0  0  0  0  0  0  0  0  0  0  0  0
  117.6772  121.9319   81.8520 H   0  0  0  0  0  0  0  0  0  0  0  0
  118.6959  123.7434   82.7085 H   0  0  0  0  0  0  0  0  0  0  0  0
  117.1038  124.5669   82.9716 H   0  0  0  0  0  0  0  0  0  0  0  0
  117.0768  122.8675   85.0021 H   0  0  0  0  0  0  0  0  0  0  0  0
  120.3513  123.8136   84.2096 H   0  0  0  0  0  0  0  0  0  0  0  0
  119.9501  122.7446   87.7850 H   0  0  0  0  0  0  0  0  0  0  0  0
  121.8073  121.6198   89.0072 H   0  0  0  0  0  0  0  0  0  0  0  0
  124.2640  121.8508   85.4727 H   0  0  0  0  0  0  0  0  0  0  0  0
  122.4119  122.9760   84.2544 H   0  0  0  0  0  0  0  0  0  0  0  0
  1  2  1  0
  2  3  1  0
  3  4  1  0
  4  5  2  0
  4  6  1  0
  6  7  1  0
  7  8  2  0
  8  9  1  0
  9 10  2  0
 10 11  1  0
 11 12  1  0
 12 13  1  0
 12 14  1  0
 12 15  1  0
 10 16  1  0
 16 17  2  0
 17  7  1  0
  1 18  1  0
  1 19  1  0
  1 20  1  0
  2 21  1  0
  2 22  1  0
  3 23  1  0
  6 24  1  0
  8 25  1  0
  9 26  1  0
 16 27  1  0
 17 28  1  0
M  END
>  <loss>  (10) 
0.5463782548904419

>  <score>  (10) 
2.7530598640441895

$$$$
YRUQQTOSETWSHS-UHFFFAOYSA-N
     RDKit          3D

 28 28  0  0  0  0  0  0  0  0999 V2000
  115.8821  122.2166   83.2981 C   0  0  0  0  0  0  0  0  0  0  0  0
  117.3472  122.0732   83.6631 C   0  0  0  0  0  0  0  0  0  0  0  0
  117.9340  123.3542   84.0237 N   0  0  0  0  0  0  0  0  0  0  0  0
  119.2650  123.6902   84.0288 C   0  0  0  0  0  0  0  0  0  0  0  0
  119.9533  123.9782   82.5355 S   0  0  0  0  0  0  0  0  0  0  0  0
  119.8491  123.7100   85.2706 N   0  0  0  0  0  0  0  0  0  0  0  0
  121.0098  123.0799   85.7702 C   0  0  0  0  0  0  0  0  0  0  0  0
  121.0012  122.7131   87.1203 C   0  0  0  0  0  0  0  0  0  0  0  0
  122.1169  122.1031   87.7028 C   0  0  0  0  0  0  0  0  0  0  0  0
  123.2699  121.8617   86.9545 C   0  0  0  0  0  0  0  0  0  0  0  0
  124.2799  121.2610   87.6475 O   0  0  0  0  0  0  0  0  0  0  0  0
  125.6047  121.4501   87.1807 C   0  0  0  0  0  0  0  0  0  0  0  0
  126.4627  120.9951   88.1212 F   0  0  0  0  0  0  0  0  0  0  0  0
  125.8669  122.7585   86.9745 F   0  0  0  0  0  0  0  0  0  0  0  0
  125.8263  120.7589   86.0427 F   0  0  0  0  0  0  0  0  0  0  0  0
  123.2931  122.2488   85.6167 C   0  0  0  0  0  0  0  0  0  0  0  0
  122.1723  122.8601   85.0330 C   0  0  0  0  0  0  0  0  0  0  0  0
  115.2795  122.2755   84.2165 H   0  0  0  0  0  0  0  0  0  0  0  0
  115.7395  123.1329   82.7066 H   0  0  0  0  0  0  0  0  0  0  0  0
  115.5646  121.3452   82.7066 H   0  0  0  0  0  0  0  0  0  0  0  0
  117.4373  121.3857   84.5170 H   0  0  0  0  0  0  0  0  0  0  0  0
  117.8846  121.6816   82.7869 H   0  0  0  0  0  0  0  0  0  0  0  0
  117.2757  124.0937   84.3077 H   0  0  0  0  0  0  0  0  0  0  0  0
  119.3513  124.2884   85.9624 H   0  0  0  0  0  0  0  0  0  0  0  0
  120.1067  122.9067   87.7306 H   0  0  0  0  0  0  0  0  0  0  0  0
  122.0852  121.8105   88.7627 H   0  0  0  0  0  0  0  0  0  0  0  0
  124.1962  122.0744   85.0133 H   0  0  0  0  0  0  0  0  0  0  0  0
  122.2120  123.1702   83.9783 H   0  0  0  0  0  0  0  0  0  0  0  0
  1  2  1  0
  2  3  1  0
  3  4  1  0
  4  5  2  0
  4  6  1  0
  6  7  1  0
  7  8  2  0
  8  9  1  0
  9 10  2  0
 10 11  1  0
 11 12  1  0
 12 13  1  0
 12 14  1  0
 12 15  1  0
 10 16  1  0
 16 17  2  0
 17  7  1  0
  1 18  1  0
  1 19  1  0
  1 20  1  0
  2 21  1  0
  2 22  1  0
  3 23  1  0
  6 24  1  0
  8 25  1  0
  9 26  1  0
 16 27  1  0
 17 28  1  0
M  END
>  <loss>  (11) 
0.5559977293014526

>  <score>  (11) 
2.6048357486724854

$$$$
YRUQQTOSETWSHS-UHFFFAOYSA-N
     RDKit          3D

 28 28  0  0  0  0  0  0  0  0999 V2000
  116.1833  121.6531   83.7259 C   0  0  0  0  0  0  0  0  0  0  0  0
  117.2181  122.5802   83.1166 C   0  0  0  0  0  0  0  0  0  0  0  0
  117.9772  123.2690   84.1523 N   0  0  0  0  0  0  0  0  0  0  0  0
  119.2898  123.6374   84.0643 C   0  0  0  0  0  0  0  0  0  0  0  0
  120.1118  123.9837   82.6495 S   0  0  0  0  0  0  0  0  0  0  0  0
  119.9727  123.7808   85.2399 N   0  0  0  0  0  0  0  0  0  0  0  0
  121.0639  123.0761   85.7860 C   0  0  0  0  0  0  0  0  0  0  0  0
  120.9922  122.7422   87.1428 C   0  0  0  0  0  0  0  0  0  0  0  0
  122.0364  122.0528   87.7742 C   0  0  0  0  0  0  0  0  0  0  0  0
  123.1790  121.7040   87.0576 C   0  0  0  0  0  0  0  0  0  0  0  0
  124.2695  121.0380   87.5360 O   0  0  0  0  0  0  0  0  0  0  0  0
  125.5405  121.6406   87.3638 C   0  0  0  0  0  0  0  0  0  0  0  0
  126.4227  121.0356   88.1896 F   0  0  0  0  0  0  0  0  0  0  0  0
  125.9825  121.4927   86.0966 F   0  0  0  0  0  0  0  0  0  0  0  0
  125.5041  122.9533   87.6784 F   0  0  0  0  0  0  0  0  0  0  0  0
  123.2646  122.0636   85.7105 C   0  0  0  0  0  0  0  0  0  0  0  0
  122.2208  122.7503   85.0796 C   0  0  0  0  0  0  0  0  0  0  0  0
  116.2434  121.7070   84.8229 H   0  0  0  0  0  0  0  0  0  0  0  0
  115.1788  121.9591   83.3983 H   0  0  0  0  0  0  0  0  0  0  0  0
  116.3773  120.6211   83.3983 H   0  0  0  0  0  0  0  0  0  0  0  0
  117.9091  121.9899   82.4968 H   0  0  0  0  0  0  0  0  0  0  0  0
  116.6979  123.3321   82.5050 H   0  0  0  0  0  0  0  0  0  0  0  0
  117.4815  123.4978   85.0257 H   0  0  0  0  0  0  0  0  0  0  0  0
  119.6254  124.5452   85.8366 H   0  0  0  0  0  0  0  0  0  0  0  0
  120.1019  123.0254   87.7234 H   0  0  0  0  0  0  0  0  0  0  0  0
  121.9534  121.7864   88.8382 H   0  0  0  0  0  0  0  0  0  0  0  0
  124.1663  121.8031   85.1367 H   0  0  0  0  0  0  0  0  0  0  0  0
  122.3137  123.0345   84.0210 H   0  0  0  0  0  0  0  0  0  0  0  0
  1  2  1  0
  2  3  1  0
  3  4  1  0
  4  5  2  0
  4  6  1  0
  6  7  1  0
  7  8  2  0
  8  9  1  0
  9 10  2  0
 10 11  1  0
 11 12  1  0
 12 13  1  0
 12 14  1  0
 12 15  1  0
 10 16  1  0
 16 17  2  0
 17  7  1  0
  1 18  1  0
  1 19  1  0
  1 20  1  0
  2 21  1  0
  2 22  1  0
  3 23  1  0
  6 24  1  0
  8 25  1  0
  9 26  1  0
 16 27  1  0
 17 28  1  0
M  END
>  <loss>  (12) 
0.5549314618110657

>  <score>  (12) 
2.560323715209961

$$$$
YRUQQTOSETWSHS-UHFFFAOYSA-N
     RDKit          3D

 28 28  0  0  0  0  0  0  0  0999 V2000
  116.4983  121.5804   83.6261 C   0  0  0  0  0  0  0  0  0  0  0  0
  117.4991  122.5240   82.9861 C   0  0  0  0  0  0  0  0  0  0  0  0
  118.1758  123.3301   83.9939 N   0  0  0  0  0  0  0  0  0  0  0  0
  119.5132  123.6073   84.0241 C   0  0  0  0  0  0  0  0  0  0  0  0
  120.4650  123.9620   82.6954 S   0  0  0  0  0  0  0  0  0  0  0  0
  120.1101  123.6443   85.2534 N   0  0  0  0  0  0  0  0  0  0  0  0
  121.2545  122.9993   85.7634 C   0  0  0  0  0  0  0  0  0  0  0  0
  121.1701  122.4831   87.0610 C   0  0  0  0  0  0  0  0  0  0  0  0
  122.2626  121.8367   87.6549 C   0  0  0  0  0  0  0  0  0  0  0  0
  123.4651  121.7149   86.9621 C   0  0  0  0  0  0  0  0  0  0  0  0
  124.6068  121.1169   87.4099 O   0  0  0  0  0  0  0  0  0  0  0  0
  125.1179  121.5252   88.6670 C   0  0  0  0  0  0  0  0  0  0  0  0
  125.4183  120.4244   89.3911 F   0  0  0  0  0  0  0  0  0  0  0  0
  126.2460  122.2527   88.5218 F   0  0  0  0  0  0  0  0  0  0  0  0
  124.2039  122.2428   89.3548 F   0  0  0  0  0  0  0  0  0  0  0  0
  123.5600  122.2568   85.6780 C   0  0  0  0  0  0  0  0  0  0  0  0
  122.4680  122.9005   85.0844 C   0  0  0  0  0  0  0  0  0  0  0  0
  116.5748  121.6524   84.7211 H   0  0  0  0  0  0  0  0  0  0  0  0
  115.4811  121.8557   83.3106 H   0  0  0  0  0  0  0  0  0  0  0  0
  116.7134  120.5487   83.3106 H   0  0  0  0  0  0  0  0  0  0  0  0
  118.2471  121.9351   82.4349 H   0  0  0  0  0  0  0  0  0  0  0  0
  116.9592  123.1970   82.3039 H   0  0  0  0  0  0  0  0  0  0  0  0
  117.5960  123.7248   84.7482 H   0  0  0  0  0  0  0  0  0  0  0  0
  119.6358  124.2568   85.9322 H   0  0  0  0  0  0  0  0  0  0  0  0
  120.2309  122.5863   87.6243 H   0  0  0  0  0  0  0  0  0  0  0  0
  122.1704  121.4244   88.6705 H   0  0  0  0  0  0  0  0  0  0  0  0
  124.5075  122.1763   85.1250 H   0  0  0  0  0  0  0  0  0  0  0  0
  122.5679  123.3306   84.0769 H   0  0  0  0  0  0  0  0  0  0  0  0
  1  2  1  0
  2  3  1  0
  3  4  1  0
  4  5  2  0
  4  6  1  0
  6  7  1  0
  7  8  2  0
  8  9  1  0
  9 10  2  0
 10 11  1  0
 11 12  1  0
 12 13  1  0
 12 14  1  0
 12 15  1  0
 10 16  1  0
 16 17  2  0
 17  7  1  0
  1 18  1  0
  1 19  1  0
  1 20  1  0
  2 21  1  0
  2 22  1  0
  3 23  1  0
  6 24  1  0
  8 25  1  0
  9 26  1  0
 16 27  1  0
 17 28  1  0
M  END
>  <loss>  (13) 
0.5883668661117554

>  <score>  (13) 
2.677394151687622

$$$$
YRUQQTOSETWSHS-UHFFFAOYSA-N
     RDKit          3D

 28 28  0  0  0  0  0  0  0  0999 V2000
  117.2391  122.4418   82.3288 C   0  0  0  0  0  0  0  0  0  0  0  0
  118.3236  123.2876   82.9706 C   0  0  0  0  0  0  0  0  0  0  0  0
  117.9941  123.6232   84.3461 N   0  0  0  0  0  0  0  0  0  0  0  0
  118.7937  123.6437   85.4587 C   0  0  0  0  0  0  0  0  0  0  0  0
  117.9986  123.5820   86.9256 S   0  0  0  0  0  0  0  0  0  0  0  0
  120.1414  123.6806   85.2050 N   0  0  0  0  0  0  0  0  0  0  0  0
  121.2286  122.9923   85.7870 C   0  0  0  0  0  0  0  0  0  0  0  0
  121.2697  122.5369   87.1038 C   0  0  0  0  0  0  0  0  0  0  0  0
  122.4049  121.8819   87.6070 C   0  0  0  0  0  0  0  0  0  0  0  0
  123.5233  121.6858   86.8003 C   0  0  0  0  0  0  0  0  0  0  0  0
  124.6873  121.0692   87.1554 O   0  0  0  0  0  0  0  0  0  0  0  0
  125.4510  121.6503   88.1984 C   0  0  0  0  0  0  0  0  0  0  0  0
  126.5652  120.9073   88.3828 F   0  0  0  0  0  0  0  0  0  0  0  0
  125.8340  122.9056   87.8811 F   0  0  0  0  0  0  0  0  0  0  0  0
  124.7622  121.6665   89.3591 F   0  0  0  0  0  0  0  0  0  0  0  0
  123.4960  122.1621   85.4890 C   0  0  0  0  0  0  0  0  0  0  0  0
  122.3647  122.8154   84.9893 C   0  0  0  0  0  0  0  0  0  0  0  0
  116.6313  121.9678   83.1135 H   0  0  0  0  0  0  0  0  0  0  0  0
  116.5977  123.0806   81.7038 H   0  0  0  0  0  0  0  0  0  0  0  0
  117.7024  121.6641   81.7038 H   0  0  0  0  0  0  0  0  0  0  0  0
  119.2696  122.7265   82.9565 H   0  0  0  0  0  0  0  0  0  0  0  0
  118.4144  124.2233   82.3996 H   0  0  0  0  0  0  0  0  0  0  0  0
  117.0114  123.8850   84.5090 H   0  0  0  0  0  0  0  0  0  0  0  0
  120.4097  124.3296   84.4515 H   0  0  0  0  0  0  0  0  0  0  0  0
  120.3997  122.6932   87.7584 H   0  0  0  0  0  0  0  0  0  0  0  0
  122.4111  121.5208   88.6461 H   0  0  0  0  0  0  0  0  0  0  0  0
  124.3739  122.0223   84.8412 H   0  0  0  0  0  0  0  0  0  0  0  0
  122.3681  123.1948   83.9567 H   0  0  0  0  0  0  0  0  0  0  0  0
  1  2  1  0
  2  3  1  0
  3  4  1  0
  4  5  2  0
  4  6  1  0
  6  7  1  0
  7  8  2  0
  8  9  1  0
  9 10  2  0
 10 11  1  0
 11 12  1  0
 12 13  1  0
 12 14  1  0
 12 15  1  0
 10 16  1  0
 16 17  2  0
 17  7  1  0
  1 18  1  0
  1 19  1  0
  1 20  1  0
  2 21  1  0
  2 22  1  0
  3 23  1  0
  6 24  1  0
  8 25  1  0
  9 26  1  0
 16 27  1  0
 17 28  1  0
M  END
>  <loss>  (14) 
0.5997333526611328

>  <score>  (14) 
2.729736328125

$$$$
YRUQQTOSETWSHS-UHFFFAOYSA-N
     RDKit          3D

 28 28  0  0  0  0  0  0  0  0999 V2000
  116.3965  121.4835   83.5302 C   0  0  0  0  0  0  0  0  0  0  0  0
  117.3335  122.5376   82.9663 C   0  0  0  0  0  0  0  0  0  0  0  0
  118.0586  123.2400   84.0199 N   0  0  0  0  0  0  0  0  0  0  0  0
  119.3922  123.6387   83.9942 C   0  0  0  0  0  0  0  0  0  0  0  0
  120.2191  124.0478   82.6003 S   0  0  0  0  0  0  0  0  0  0  0  0
  119.9064  123.5631   85.2842 N   0  0  0  0  0  0  0  0  0  0  0  0
  121.1088  123.0098   85.7751 C   0  0  0  0  0  0  0  0  0  0  0  0
  121.1056  122.5463   87.0946 C   0  0  0  0  0  0  0  0  0  0  0  0
  122.2639  122.0078   87.6644 C   0  0  0  0  0  0  0  0  0  0  0  0
  123.4521  121.9378   86.9352 C   0  0  0  0  0  0  0  0  0  0  0  0
  124.5015  121.3898   87.6133 O   0  0  0  0  0  0  0  0  0  0  0  0
  125.7387  121.2715   86.9321 C   0  0  0  0  0  0  0  0  0  0  0  0
  126.1676  119.9918   86.9142 F   0  0  0  0  0  0  0  0  0  0  0  0
  125.6452  121.7358   85.6676 F   0  0  0  0  0  0  0  0  0  0  0  0
  126.6622  122.0141   87.5826 F   0  0  0  0  0  0  0  0  0  0  0  0
  123.4671  122.4243   85.6299 C   0  0  0  0  0  0  0  0  0  0  0  0
  122.3041  122.9635   85.0588 C   0  0  0  0  0  0  0  0  0  0  0  0
  116.4261  121.5169   84.6293 H   0  0  0  0  0  0  0  0  0  0  0  0
  115.3711  121.6820   83.1849 H   0  0  0  0  0  0  0  0  0  0  0  0
  116.7136  120.4885   83.1849 H   0  0  0  0  0  0  0  0  0  0  0  0
  118.0595  122.0484   82.3002 H   0  0  0  0  0  0  0  0  0  0  0  0
  116.7278  123.2749   82.4191 H   0  0  0  0  0  0  0  0  0  0  0  0
  117.5273  123.4647   84.8732 H   0  0  0  0  0  0  0  0  0  0  0  0
  119.3055  123.9840   86.0071 H   0  0  0  0  0  0  0  0  0  0  0  0
  120.1828  122.6057   87.6903 H   0  0  0  0  0  0  0  0  0  0  0  0
  122.2382  121.6353   88.6991 H   0  0  0  0  0  0  0  0  0  0  0  0
  124.3967  122.3856   85.0430 H   0  0  0  0  0  0  0  0  0  0  0  0
  122.3360  123.3552   84.0314 H   0  0  0  0  0  0  0  0  0  0  0  0
  1  2  1  0
  2  3  1  0
  3  4  1  0
  4  5  2  0
  4  6  1  0
  6  7  1  0
  7  8  2  0
  8  9  1  0
  9 10  2  0
 10 11  1  0
 11 12  1  0
 12 13  1  0
 12 14  1  0
 12 15  1  0
 10 16  1  0
 16 17  2  0
 17  7  1  0
  1 18  1  0
  1 19  1  0
  1 20  1  0
  2 21  1  0
  2 22  1  0
  3 23  1  0
  6 24  1  0
  8 25  1  0
  9 26  1  0
 16 27  1  0
 17 28  1  0
M  END
>  <loss>  (15) 
0.5918768644332886

>  <score>  (15) 
2.5442261695861816

$$$$
YRUQQTOSETWSHS-UHFFFAOYSA-N
     RDKit          3D

 28 28  0  0  0  0  0  0  0  0999 V2000
  116.8352  122.0687   82.4431 C   0  0  0  0  0  0  0  0  0  0  0  0
  117.3650  123.3774   83.0031 C   0  0  0  0  0  0  0  0  0  0  0  0
  118.0413  123.1872   84.2820 N   0  0  0  0  0  0  0  0  0  0  0  0
  119.3000  123.6617   84.6408 C   0  0  0  0  0  0  0  0  0  0  0  0
  120.0500  124.9661   83.9129 S   0  0  0  0  0  0  0  0  0  0  0  0
  119.7639  122.9234   85.7243 N   0  0  0  0  0  0  0  0  0  0  0  0
  121.0683  122.5235   86.0871 C   0  0  0  0  0  0  0  0  0  0  0  0
  122.1297  123.0795   85.3658 C   0  0  0  0  0  0  0  0  0  0  0  0
  123.4533  122.7549   85.6800 C   0  0  0  0  0  0  0  0  0  0  0  0
  123.7445  121.8836   86.7310 C   0  0  0  0  0  0  0  0  0  0  0  0
  125.0755  121.6552   86.9254 O   0  0  0  0  0  0  0  0  0  0  0  0
  125.5774  121.7594   88.2467 C   0  0  0  0  0  0  0  0  0  0  0  0
  126.9188  121.6073   88.2720 F   0  0  0  0  0  0  0  0  0  0  0  0
  125.2450  122.9424   88.8051 F   0  0  0  0  0  0  0  0  0  0  0  0
  125.0310  120.7747   88.9947 F   0  0  0  0  0  0  0  0  0  0  0  0
  122.6914  121.3495   87.4701 C   0  0  0  0  0  0  0  0  0  0  0  0
  121.3635  121.6752   87.1535 C   0  0  0  0  0  0  0  0  0  0  0  0
  116.5638  121.3983   83.2719 H   0  0  0  0  0  0  0  0  0  0  0  0
  115.9465  122.2670   81.8259 H   0  0  0  0  0  0  0  0  0  0  0  0
  117.6115  121.5929   81.8259 H   0  0  0  0  0  0  0  0  0  0  0  0
  118.0774  123.8092   82.2847 H   0  0  0  0  0  0  0  0  0  0  0  0
  116.5099  124.0498   83.1660 H   0  0  0  0  0  0  0  0  0  0  0  0
  117.5336  122.6443   84.9950 H   0  0  0  0  0  0  0  0  0  0  0  0
  119.0278  122.6147   86.3753 H   0  0  0  0  0  0  0  0  0  0  0  0
  121.9213  123.7792   84.5430 H   0  0  0  0  0  0  0  0  0  0  0  0
  124.2744  123.1912   85.0921 H   0  0  0  0  0  0  0  0  0  0  0  0
  122.9020  120.6681   88.3076 H   0  0  0  0  0  0  0  0  0  0  0  0
  120.5440  121.2552   87.7551 H   0  0  0  0  0  0  0  0  0  0  0  0
  1  2  1  0
  2  3  1  0
  3  4  1  0
  4  5  2  0
  4  6  1  0
  6  7  1  0
  7  8  2  0
  8  9  1  0
  9 10  2  0
 10 11  1  0
 11 12  1  0
 12 13  1  0
 12 14  1  0
 12 15  1  0
 10 16  1  0
 16 17  2  0
 17  7  1  0
  1 18  1  0
  1 19  1  0
  1 20  1  0
  2 21  1  0
  2 22  1  0
  3 23  1  0
  6 24  1  0
  8 25  1  0
  9 26  1  0
 16 27  1  0
 17 28  1  0
M  END
>  <loss>  (16) 
0.5991021394729614

>  <score>  (16) 
2.514035224914551

$$$$
YRUQQTOSETWSHS-UHFFFAOYSA-N
     RDKit          3D

 28 28  0  0  0  0  0  0  0  0999 V2000
  116.9820  124.6165   83.2637 C   0  0  0  0  0  0  0  0  0  0  0  0
  117.0007  123.1733   83.7329 C   0  0  0  0  0  0  0  0  0  0  0  0
  118.2900  122.8135   84.2999 N   0  0  0  0  0  0  0  0  0  0  0  0
  119.5304  123.3456   84.0636 C   0  0  0  0  0  0  0  0  0  0  0  0
  119.9232  123.5873   82.4589 S   0  0  0  0  0  0  0  0  0  0  0  0
  120.2627  123.6339   85.1873 N   0  0  0  0  0  0  0  0  0  0  0  0
  121.3079  122.9389   85.8345 C   0  0  0  0  0  0  0  0  0  0  0  0
  121.2514  122.4508   87.1389 C   0  0  0  0  0  0  0  0  0  0  0  0
  122.3502  121.7913   87.7122 C   0  0  0  0  0  0  0  0  0  0  0  0
  123.5292  121.6236   86.9899 C   0  0  0  0  0  0  0  0  0  0  0  0
  124.6679  121.0065   87.4187 O   0  0  0  0  0  0  0  0  0  0  0  0
  125.8681  121.7602   87.4174 C   0  0  0  0  0  0  0  0  0  0  0  0
  126.6271  121.3611   86.3722 F   0  0  0  0  0  0  0  0  0  0  0  0
  125.6160  123.0785   87.2709 F   0  0  0  0  0  0  0  0  0  0  0  0
  126.5750  121.5572   88.5492 F   0  0  0  0  0  0  0  0  0  0  0  0
  123.5989  122.1326   85.6925 C   0  0  0  0  0  0  0  0  0  0  0  0
  122.5037  122.7903   85.1229 C   0  0  0  0  0  0  0  0  0  0  0  0
  116.9734  125.2858   84.1366 H   0  0  0  0  0  0  0  0  0  0  0  0
  117.8777  124.8164   82.6572 H   0  0  0  0  0  0  0  0  0  0  0  0
  116.0815  124.7932   82.6572 H   0  0  0  0  0  0  0  0  0  0  0  0
  116.2229  123.0364   84.4986 H   0  0  0  0  0  0  0  0  0  0  0  0
  116.8133  122.5256   82.8638 H   0  0  0  0  0  0  0  0  0  0  0  0
  118.2678  122.0423   84.9823 H   0  0  0  0  0  0  0  0  0  0  0  0
  120.0023  124.5204   85.6426 H   0  0  0  0  0  0  0  0  0  0  0  0
  120.3321  122.5844   87.7280 H   0  0  0  0  0  0  0  0  0  0  0  0
  122.2795  121.4043   88.7394 H   0  0  0  0  0  0  0  0  0  0  0  0
  124.5254  122.0154   85.1112 H   0  0  0  0  0  0  0  0  0  0  0  0
  122.5833  123.1956   84.1034 H   0  0  0  0  0  0  0  0  0  0  0  0
  1  2  1  0
  2  3  1  0
  3  4  1  0
  4  5  2  0
  4  6  1  0
  6  7  1  0
  7  8  2  0
  8  9  1  0
  9 10  2  0
 10 11  1  0
 11 12  1  0
 12 13  1  0
 12 14  1  0
 12 15  1  0
 10 16  1  0
 16 17  2  0
 17  7  1  0
  1 18  1  0
  1 19  1  0
  1 20  1  0
  2 21  1  0
  2 22  1  0
  3 23  1  0
  6 24  1  0
  8 25  1  0
  9 26  1  0
 16 27  1  0
 17 28  1  0
M  END
>  <loss>  (17) 
0.6291723251342773

>  <score>  (17) 
2.5760176181793213

$$$$
YRUQQTOSETWSHS-UHFFFAOYSA-N
     RDKit          3D

 28 28  0  0  0  0  0  0  0  0999 V2000
  116.8578  122.0287   82.5518 C   0  0  0  0  0  0  0  0  0  0  0  0
  117.5933  123.2664   83.0289 C   0  0  0  0  0  0  0  0  0  0  0  0
  117.6575  123.3211   84.4808 N   0  0  0  0  0  0  0  0  0  0  0  0
  118.7351  123.6720   85.2555 C   0  0  0  0  0  0  0  0  0  0  0  0
  118.3841  124.4629   86.6831 S   0  0  0  0  0  0  0  0  0  0  0  0
  119.9574  123.3460   84.7233 N   0  0  0  0  0  0  0  0  0  0  0  0
  121.1658  122.9404   85.3308 C   0  0  0  0  0  0  0  0  0  0  0  0
  121.0634  122.1794   86.5004 C   0  0  0  0  0  0  0  0  0  0  0  0
  122.2098  121.7533   87.1790 C   0  0  0  0  0  0  0  0  0  0  0  0
  123.4813  122.0916   86.7138 C   0  0  0  0  0  0  0  0  0  0  0  0
  124.5088  121.6097   87.4710 O   0  0  0  0  0  0  0  0  0  0  0  0
  125.7739  121.4610   86.8498 C   0  0  0  0  0  0  0  0  0  0  0  0
  126.7150  121.3345   87.8121 F   0  0  0  0  0  0  0  0  0  0  0  0
  126.0816  122.5443   86.1048 F   0  0  0  0  0  0  0  0  0  0  0  0
  125.8134  120.3544   86.0779 F   0  0  0  0  0  0  0  0  0  0  0  0
  123.5883  122.8713   85.5645 C   0  0  0  0  0  0  0  0  0  0  0  0
  122.4370  123.2975   84.8838 C   0  0  0  0  0  0  0  0  0  0  0  0
  116.5134  121.4490   83.4209 H   0  0  0  0  0  0  0  0  0  0  0  0
  115.9913  122.3285   81.9442 H   0  0  0  0  0  0  0  0  0  0  0  0
  117.5355  121.4109   81.9442 H   0  0  0  0  0  0  0  0  0  0  0  0
  118.6168  123.2516   82.6261 H   0  0  0  0  0  0  0  0  0  0  0  0
  117.0457  124.1518   82.6738 H   0  0  0  0  0  0  0  0  0  0  0  0
  116.7961  123.0677   84.9854 H   0  0  0  0  0  0  0  0  0  0  0  0
  120.0012  123.4084   83.6961 H   0  0  0  0  0  0  0  0  0  0  0  0
  120.0700  121.9132   86.8907 H   0  0  0  0  0  0  0  0  0  0  0  0
  122.1080  121.1447   88.0896 H   0  0  0  0  0  0  0  0  0  0  0  0
  124.5820  123.1550   85.1875 H   0  0  0  0  0  0  0  0  0  0  0  0
  122.5394  123.9224   83.9844 H   0  0  0  0  0  0  0  0  0  0  0  0
  1  2  1  0
  2  3  1  0
  3  4  1  0
  4  5  2  0
  4  6  1  0
  6  7  1  0
  7  8  2  0
  8  9  1  0
  9 10  2  0
 10 11  1  0
 11 12  1  0
 12 13  1  0
 12 14  1  0
 12 15  1  0
 10 16  1  0
 16 17  2  0
 17  7  1  0
  1 18  1  0
  1 19  1  0
  1 20  1  0
  2 21  1  0
  2 22  1  0
  3 23  1  0
  6 24  1  0
  8 25  1  0
  9 26  1  0
 16 27  1  0
 17 28  1  0
M  END
>  <loss>  (18) 
0.6206016540527344

>  <score>  (18) 
2.507153034210205

$$$$
YRUQQTOSETWSHS-UHFFFAOYSA-N
     RDKit          3D

 28 28  0  0  0  0  0  0  0  0999 V2000
  117.5480  121.4662   82.3001 C   0  0  0  0  0  0  0  0  0  0  0  0
  118.1426  122.8357   82.5694 C   0  0  0  0  0  0  0  0  0  0  0  0
  118.7019  122.9077   83.9130 N   0  0  0  0  0  0  0  0  0  0  0  0
  119.5152  123.8993   84.3838 C   0  0  0  0  0  0  0  0  0  0  0  0
  119.6942  125.4172   83.7048 S   0  0  0  0  0  0  0  0  0  0  0  0
  120.2031  123.6407   85.5366 N   0  0  0  0  0  0  0  0  0  0  0  0
  121.4174  122.9671   85.7767 C   0  0  0  0  0  0  0  0  0  0  0  0
  121.6148  122.4476   87.0606 C   0  0  0  0  0  0  0  0  0  0  0  0
  122.7974  121.7735   87.3942 C   0  0  0  0  0  0  0  0  0  0  0  0
  123.8100  121.6268   86.4487 C   0  0  0  0  0  0  0  0  0  0  0  0
  125.0088  121.0005   86.6287 O   0  0  0  0  0  0  0  0  0  0  0  0
  126.1287  121.8005   86.9666 C   0  0  0  0  0  0  0  0  0  0  0  0
  127.1339  120.9917   87.3685 F   0  0  0  0  0  0  0  0  0  0  0  0
  126.5606  122.5092   85.9017 F   0  0  0  0  0  0  0  0  0  0  0  0
  125.8374  122.6430   87.9809 F   0  0  0  0  0  0  0  0  0  0  0  0
  123.6263  122.1716   85.1756 C   0  0  0  0  0  0  0  0  0  0  0  0
  122.4443  122.8430   84.8421 C   0  0  0  0  0  0  0  0  0  0  0  0
  117.3309  120.9664   83.2557 H   0  0  0  0  0  0  0  0  0  0  0  0
  116.6171  121.5773   81.7247 H   0  0  0  0  0  0  0  0  0  0  0  0
  118.2647  120.8620   81.7247 H   0  0  0  0  0  0  0  0  0  0  0  0
  118.9395  123.0321   81.8370 H   0  0  0  0  0  0  0  0  0  0  0  0
  117.3444  123.5875   82.4816 H   0  0  0  0  0  0  0  0  0  0  0  0
  118.4637  122.1456   84.5636 H   0  0  0  0  0  0  0  0  0  0  0  0
  119.7501  124.0057   86.3866 H   0  0  0  0  0  0  0  0  0  0  0  0
  120.8292  122.5702   87.8207 H   0  0  0  0  0  0  0  0  0  0  0  0
  122.9264  121.3592   88.4050 H   0  0  0  0  0  0  0  0  0  0  0  0
  124.4229  122.0715   84.4236 H   0  0  0  0  0  0  0  0  0  0  0  0
  122.3250  123.2750   83.8375 H   0  0  0  0  0  0  0  0  0  0  0  0
  1  2  1  0
  2  3  1  0
  3  4  1  0
  4  5  2  0
  4  6  1  0
  6  7  1  0
  7  8  2  0
  8  9  1  0
  9 10  2  0
 10 11  1  0
 11 12  1  0
 12 13  1  0
 12 14  1  0
 12 15  1  0
 10 16  1  0
 16 17  2  0
 17  7  1  0
  1 18  1  0
  1 19  1  0
  1 20  1  0
  2 21  1  0
  2 22  1  0
  3 23  1  0
  6 24  1  0
  8 25  1  0
  9 26  1  0
 16 27  1  0
 17 28  1  0
M  END
>  <loss>  (19) 
0.6156930327415466

>  <score>  (19) 
2.292379140853882

$$$$
YRUQQTOSETWSHS-UHFFFAOYSA-N
     RDKit          3D

 28 28  0  0  0  0  0  0  0  0999 V2000
  118.5893  127.0143   84.3131 C   0  0  0  0  0  0  0  0  0  0  0  0
  118.7810  125.7194   83.5427 C   0  0  0  0  0  0  0  0  0  0  0  0
  118.7905  124.5577   84.4257 N   0  0  0  0  0  0  0  0  0  0  0  0
  119.3927  123.3266   84.1812 C   0  0  0  0  0  0  0  0  0  0  0  0
  119.3379  122.5347   82.7102 S   0  0  0  0  0  0  0  0  0  0  0  0
  119.9607  122.8640   85.3634 N   0  0  0  0  0  0  0  0  0  0  0  0
  121.3084  122.6569   85.7289 C   0  0  0  0  0  0  0  0  0  0  0  0
  121.5560  122.2301   87.0376 C   0  0  0  0  0  0  0  0  0  0  0  0
  122.8650  122.0269   87.4861 C   0  0  0  0  0  0  0  0  0  0  0  0
  123.9529  122.2626   86.6439 C   0  0  0  0  0  0  0  0  0  0  0  0
  125.1706  122.0230   87.2107 O   0  0  0  0  0  0  0  0  0  0  0  0
  126.1493  121.3688   86.4214 C   0  0  0  0  0  0  0  0  0  0  0  0
  127.2521  121.0838   87.1457 F   0  0  0  0  0  0  0  0  0  0  0  0
  125.6585  120.2345   85.8777 F   0  0  0  0  0  0  0  0  0  0  0  0
  126.5117  122.1929   85.4129 F   0  0  0  0  0  0  0  0  0  0  0  0
  123.7120  122.7149   85.3485 C   0  0  0  0  0  0  0  0  0  0  0  0
  122.3980  122.9176   84.8991 C   0  0  0  0  0  0  0  0  0  0  0  0
  118.6201  126.8065   85.3929 H   0  0  0  0  0  0  0  0  0  0  0  0
  119.3930  127.7186   84.0522 H   0  0  0  0  0  0  0  0  0  0  0  0
  117.6161  127.4555   84.0522 H   0  0  0  0  0  0  0  0  0  0  0  0
  117.9588  125.6103   82.8202 H   0  0  0  0  0  0  0  0  0  0  0  0
  119.7539  125.7673   83.0316 H   0  0  0  0  0  0  0  0  0  0  0  0
  118.2996  124.6594   85.3254 H   0  0  0  0  0  0  0  0  0  0  0  0
  119.2795  122.6322   86.1004 H   0  0  0  0  0  0  0  0  0  0  0  0
  120.7125  122.0524   87.7210 H   0  0  0  0  0  0  0  0  0  0  0  0
  123.0393  121.6773   88.5144 H   0  0  0  0  0  0  0  0  0  0  0  0
  124.5572  122.9145   84.6734 H   0  0  0  0  0  0  0  0  0  0  0  0
  122.2253  123.2874   83.8776 H   0  0  0  0  0  0  0  0  0  0  0  0
  1  2  1  0
  2  3  1  0
  3  4  1  0
  4  5  2  0
  4  6  1  0
  6  7  1  0
  7  8  2  0
  8  9  1  0
  9 10  2  0
 10 11  1  0
 11 12  1  0
 12 13  1  0
 12 14  1  0
 12 15  1  0
 10 16  1  0
 16 17  2  0
 17  7  1  0
  1 18  1  0
  1 19  1  0
  1 20  1  0
  2 21  1  0
  2 22  1  0
  3 23  1  0
  6 24  1  0
  8 25  1  0
  9 26  1  0
 16 27  1  0
 17 28  1  0
M  END
>  <loss>  (20) 
0.6316865086555481

>  <score>  (20) 
2.2291829586029053

$$$$
YRUQQTOSETWSHS-UHFFFAOYSA-N
     RDKit          3D

 28 28  0  0  0  0  0  0  0  0999 V2000
  116.7818  121.3615   83.2388 C   0  0  0  0  0  0  0  0  0  0  0  0
  117.1410  122.8263   83.4192 C   0  0  0  0  0  0  0  0  0  0  0  0
  118.3535  122.9948   84.2134 N   0  0  0  0  0  0  0  0  0  0  0  0
  119.5607  123.5440   83.7900 C   0  0  0  0  0  0  0  0  0  0  0  0
  119.9191  123.8976   82.1961 S   0  0  0  0  0  0  0  0  0  0  0  0
  120.3501  123.8021   84.9055 N   0  0  0  0  0  0  0  0  0  0  0  0
  121.4561  123.1085   85.4427 C   0  0  0  0  0  0  0  0  0  0  0  0
  122.5262  122.8488   84.5804 C   0  0  0  0  0  0  0  0  0  0  0  0
  123.6702  122.1894   85.0415 C   0  0  0  0  0  0  0  0  0  0  0  0
  123.7763  121.7923   86.3755 C   0  0  0  0  0  0  0  0  0  0  0  0
  124.9443  121.1596   86.6871 O   0  0  0  0  0  0  0  0  0  0  0  0
  125.6662  121.6234   87.8151 C   0  0  0  0  0  0  0  0  0  0  0  0
  126.8665  122.1247   87.4533 F   0  0  0  0  0  0  0  0  0  0  0  0
  124.9690  122.5607   88.4913 F   0  0  0  0  0  0  0  0  0  0  0  0
  125.8826  120.5804   88.6475 F   0  0  0  0  0  0  0  0  0  0  0  0
  122.7246  122.0741   87.2444 C   0  0  0  0  0  0  0  0  0  0  0  0
  121.5768  122.7350   86.7806 C   0  0  0  0  0  0  0  0  0  0  0  0
  116.6657  120.8883   84.2250 H   0  0  0  0  0  0  0  0  0  0  0  0
  115.8375  121.2817   82.6804 H   0  0  0  0  0  0  0  0  0  0  0  0
  117.5820  120.8538   82.6804 H   0  0  0  0  0  0  0  0  0  0  0  0
  117.2988  123.2784   82.4289 H   0  0  0  0  0  0  0  0  0  0  0  0
  116.3133  123.3174   83.9518 H   0  0  0  0  0  0  0  0  0  0  0  0
  118.3118  122.6733   85.1910 H   0  0  0  0  0  0  0  0  0  0  0  0
  120.0810  124.6460   85.4311 H   0  0  0  0  0  0  0  0  0  0  0  0
  122.4675  123.1664   83.5289 H   0  0  0  0  0  0  0  0  0  0  0  0
  124.4957  121.9812   84.3449 H   0  0  0  0  0  0  0  0  0  0  0  0
  122.7943  121.7767   88.3012 H   0  0  0  0  0  0  0  0  0  0  0  0
  120.7606  122.9616   87.4824 H   0  0  0  0  0  0  0  0  0  0  0  0
  1  2  1  0
  2  3  1  0
  3  4  1  0
  4  5  2  0
  4  6  1  0
  6  7  1  0
  7  8  2  0
  8  9  1  0
  9 10  2  0
 10 11  1  0
 11 12  1  0
 12 13  1  0
 12 14  1  0
 12 15  1  0
 10 16  1  0
 16 17  2  0
 17  7  1  0
  1 18  1  0
  1 19  1  0
  1 20  1  0
  2 21  1  0
  2 22  1  0
  3 23  1  0
  6 24  1  0
  8 25  1  0
  9 26  1  0
 16 27  1  0
 17 28  1  0
M  END
>  <loss>  (21) 
0.6535813808441162

>  <score>  (21) 
2.3126118183135986

$$$$
YRUQQTOSETWSHS-UHFFFAOYSA-N
     RDKit          3D

 28 28  0  0  0  0  0  0  0  0999 V2000
  119.4337  125.4927   91.4275 C   0  0  0  0  0  0  0  0  0  0  0  0
  118.8347  124.7126   90.2717 C   0  0  0  0  0  0  0  0  0  0  0  0
  119.7256  123.6549   89.8235 N   0  0  0  0  0  0  0  0  0  0  0  0
  119.4783  122.5950   88.9911 C   0  0  0  0  0  0  0  0  0  0  0  0
  118.5770  121.3517   89.6466 S   0  0  0  0  0  0  0  0  0  0  0  0
  119.9831  122.7227   87.7219 N   0  0  0  0  0  0  0  0  0  0  0  0
  121.2746  122.5014   87.1951 C   0  0  0  0  0  0  0  0  0  0  0  0
  122.3127  121.8647   87.8733 C   0  0  0  0  0  0  0  0  0  0  0  0
  123.5757  121.7094   87.2801 C   0  0  0  0  0  0  0  0  0  0  0  0
  123.8212  122.2036   86.0012 C   0  0  0  0  0  0  0  0  0  0  0  0
  124.9929  122.1240   85.3070 O   0  0  0  0  0  0  0  0  0  0  0  0
  126.0623  121.4047   85.8966 C   0  0  0  0  0  0  0  0  0  0  0  0
  127.0827  121.3462   85.0116 F   0  0  0  0  0  0  0  0  0  0  0  0
  126.5104  122.0228   87.0102 F   0  0  0  0  0  0  0  0  0  0  0  0
  125.6957  120.1407   86.1964 F   0  0  0  0  0  0  0  0  0  0  0  0
  122.7922  122.8637   85.3285 C   0  0  0  0  0  0  0  0  0  0  0  0
  121.5348  123.0186   85.9211 C   0  0  0  0  0  0  0  0  0  0  0  0
  119.0974  125.0547   92.3789 H   0  0  0  0  0  0  0  0  0  0  0  0
  120.5313  125.4473   91.3706 H   0  0  0  0  0  0  0  0  0  0  0  0
  119.1067  126.5414   91.3706 H   0  0  0  0  0  0  0  0  0  0  0  0
  117.8841  124.2649   90.5973 H   0  0  0  0  0  0  0  0  0  0  0  0
  118.6742  125.4066   89.4335 H   0  0  0  0  0  0  0  0  0  0  0  0
  120.6880  123.7108   90.1863 H   0  0  0  0  0  0  0  0  0  0  0  0
  119.2934  123.0382   87.0250 H   0  0  0  0  0  0  0  0  0  0  0  0
  122.1399  121.4781   88.8885 H   0  0  0  0  0  0  0  0  0  0  0  0
  124.3771  121.1937   87.8293 H   0  0  0  0  0  0  0  0  0  0  0  0
  122.9720  123.2668   84.3209 H   0  0  0  0  0  0  0  0  0  0  0  0
  120.7408  123.5533   85.3792 H   0  0  0  0  0  0  0  0  0  0  0  0
  1  2  1  0
  2  3  1  0
  3  4  1  0
  4  5  2  0
  4  6  1  0
  6  7  1  0
  7  8  2  0
  8  9  1  0
  9 10  2  0
 10 11  1  0
 11 12  1  0
 12 13  1  0
 12 14  1  0
 12 15  1  0
 10 16  1  0
 16 17  2  0
 17  7  1  0
  1 18  1  0
  1 19  1  0
  1 20  1  0
  2 21  1  0
  2 22  1  0
  3 23  1  0
  6 24  1  0
  8 25  1  0
  9 26  1  0
 16 27  1  0
 17 28  1  0
M  END
>  <loss>  (22) 
0.7474658489227295

>  <score>  (22) 
2.6321163177490234

$$$$
YRUQQTOSETWSHS-UHFFFAOYSA-N
     RDKit          3D

 28 28  0  0  0  0  0  0  0  0999 V2000
  118.7999  121.8699   91.9899 C   0  0  0  0  0  0  0  0  0  0  0  0
  119.1734  123.0812   91.1570 C   0  0  0  0  0  0  0  0  0  0  0  0
  119.2875  122.7434   89.7471 N   0  0  0  0  0  0  0  0  0  0  0  0
  119.6479  123.5754   88.7164 C   0  0  0  0  0  0  0  0  0  0  0  0
  119.5033  125.2121   89.0116 S   0  0  0  0  0  0  0  0  0  0  0  0
  120.0487  122.9334   87.5714 N   0  0  0  0  0  0  0  0  0  0  0  0
  121.3147  122.4706   87.1510 C   0  0  0  0  0  0  0  0  0  0  0  0
  122.0752  121.7639   88.0889 C   0  0  0  0  0  0  0  0  0  0  0  0
  123.3494  121.2876   87.7637 C   0  0  0  0  0  0  0  0  0  0  0  0
  123.8976  121.5209   86.5016 C   0  0  0  0  0  0  0  0  0  0  0  0
  125.1454  121.0000   86.3205 O   0  0  0  0  0  0  0  0  0  0  0  0
  126.1538  121.8603   85.8188 C   0  0  0  0  0  0  0  0  0  0  0  0
  127.1935  121.1064   85.3966 F   0  0  0  0  0  0  0  0  0  0  0  0
  126.6058  122.6942   86.7797 F   0  0  0  0  0  0  0  0  0  0  0  0
  125.7053  122.5801   84.7686 F   0  0  0  0  0  0  0  0  0  0  0  0
  123.1553  122.2468   85.5730 C   0  0  0  0  0  0  0  0  0  0  0  0
  121.8762  122.7235   85.9003 C   0  0  0  0  0  0  0  0  0  0  0  0
  118.8774  122.1213   93.0580 H   0  0  0  0  0  0  0  0  0  0  0  0
  117.7674  121.5696   91.7579 H   0  0  0  0  0  0  0  0  0  0  0  0
  119.4840  121.0403   91.7579 H   0  0  0  0  0  0  0  0  0  0  0  0
  118.3976  123.8516   91.2784 H   0  0  0  0  0  0  0  0  0  0  0  0
  120.1497  123.4509   91.5036 H   0  0  0  0  0  0  0  0  0  0  0  0
  119.0735  121.7685   89.4928 H   0  0  0  0  0  0  0  0  0  0  0  0
  119.2896  122.7577   86.8978 H   0  0  0  0  0  0  0  0  0  0  0  0
  121.6663  121.5807   89.0935 H   0  0  0  0  0  0  0  0  0  0  0  0
  123.9260  120.7227   88.5110 H   0  0  0  0  0  0  0  0  0  0  0  0
  123.5744  122.4479   84.5760 H   0  0  0  0  0  0  0  0  0  0  0  0
  121.3085  123.3050   85.1590 H   0  0  0  0  0  0  0  0  0  0  0  0
  1  2  1  0
  2  3  1  0
  3  4  1  0
  4  5  2  0
  4  6  1  0
  6  7  1  0
  7  8  2  0
  8  9  1  0
  9 10  2  0
 10 11  1  0
 11 12  1  0
 12 13  1  0
 12 14  1  0
 12 15  1  0
 10 16  1  0
 16 17  2  0
 17  7  1  0
  1 18  1  0
  1 19  1  0
  1 20  1  0
  2 21  1  0
  2 22  1  0
  3 23  1  0
  6 24  1  0
  8 25  1  0
  9 26  1  0
 16 27  1  0
 17 28  1  0
M  END
>  <loss>  (23) 
0.7446315288543701

>  <score>  (23) 
-2.907349109649658

$$$$
YRUQQTOSETWSHS-UHFFFAOYSA-N
     RDKit          3D

 28 28  0  0  0  0  0  0  0  0999 V2000
  117.4067  125.7495   87.1622 C   0  0  0  0  0  0  0  0  0  0  0  0
  117.5232  125.3973   85.6893 C   0  0  0  0  0  0  0  0  0  0  0  0
  118.7921  124.7441   85.3853 N   0  0  0  0  0  0  0  0  0  0  0  0
  119.2998  123.5889   85.9734 C   0  0  0  0  0  0  0  0  0  0  0  0
  118.5143  122.7263   87.1703 S   0  0  0  0  0  0  0  0  0  0  0  0
  120.4989  123.2599   85.3504 N   0  0  0  0  0  0  0  0  0  0  0  0
  121.7520  122.8871   85.8829 C   0  0  0  0  0  0  0  0  0  0  0  0
  121.8235  122.6868   87.2651 C   0  0  0  0  0  0  0  0  0  0  0  0
  123.0221  122.2910   87.8676 C   0  0  0  0  0  0  0  0  0  0  0  0
  124.1675  122.0700   87.1010 C   0  0  0  0  0  0  0  0  0  0  0  0
  125.2642  121.6893   87.8177 O   0  0  0  0  0  0  0  0  0  0  0  0
  126.5290  121.7719   87.1836 C   0  0  0  0  0  0  0  0  0  0  0  0
  127.2639  120.6632   87.4156 F   0  0  0  0  0  0  0  0  0  0  0  0
  126.3986  121.9587   85.8532 F   0  0  0  0  0  0  0  0  0  0  0  0
  127.1982  122.8308   87.6919 F   0  0  0  0  0  0  0  0  0  0  0  0
  124.0933  122.2411   85.7204 C   0  0  0  0  0  0  0  0  0  0  0  0
  122.8904  122.6391   85.1170 C   0  0  0  0  0  0  0  0  0  0  0  0
  117.6943  124.8796   87.7711 H   0  0  0  0  0  0  0  0  0  0  0  0
  118.0735  126.5938   87.3912 H   0  0  0  0  0  0  0  0  0  0  0  0
  116.3680  126.0300   87.3912 H   0  0  0  0  0  0  0  0  0  0  0  0
  116.7003  124.7189   85.4197 H   0  0  0  0  0  0  0  0  0  0  0  0
  117.4728  126.3311   85.1103 H   0  0  0  0  0  0  0  0  0  0  0  0
  119.3739  125.1844   84.6583 H   0  0  0  0  0  0  0  0  0  0  0  0
  120.4670  123.2941   84.3214 H   0  0  0  0  0  0  0  0  0  0  0  0
  120.9280  122.8421   87.8848 H   0  0  0  0  0  0  0  0  0  0  0  0
  123.0626  122.1522   88.9581 H   0  0  0  0  0  0  0  0  0  0  0  0
  124.9834  122.0629   85.0992 H   0  0  0  0  0  0  0  0  0  0  0  0
  122.8450  122.7572   84.0243 H   0  0  0  0  0  0  0  0  0  0  0  0
  1  2  1  0
  2  3  1  0
  3  4  1  0
  4  5  2  0
  4  6  1  0
  6  7  1  0
  7  8  2  0
  8  9  1  0
  9 10  2  0
 10 11  1  0
 11 12  1  0
 12 13  1  0
 12 14  1  0
 12 15  1  0
 10 16  1  0
 16 17  2  0
 17  7  1  0
  1 18  1  0
  1 19  1  0
  1 20  1  0
  2 21  1  0
  2 22  1  0
  3 23  1  0
  6 24  1  0
  8 25  1  0
  9 26  1  0
 16 27  1  0
 17 28  1  0
M  END
>  <loss>  (24) 
0.7942757606506348

>  <score>  (24) 
-3.7396128177642822

$$$$
YRUQQTOSETWSHS-UHFFFAOYSA-N
     RDKit          3D

 28 28  0  0  0  0  0  0  0  0999 V2000
  115.9485  121.7983   88.9600 C   0  0  0  0  0  0  0  0  0  0  0  0
  117.2974  122.4069   89.3022 C   0  0  0  0  0  0  0  0  0  0  0  0
  117.7792  123.2902   88.2454 N   0  0  0  0  0  0  0  0  0  0  0  0
  119.0592  123.8231   88.1199 C   0  0  0  0  0  0  0  0  0  0  0  0
  119.6062  125.1525   88.9727 S   0  0  0  0  0  0  0  0  0  0  0  0
  119.7435  123.1161   87.1369 N   0  0  0  0  0  0  0  0  0  0  0  0
  121.0641  122.6190   87.0979 C   0  0  0  0  0  0  0  0  0  0  0  0
  121.5463  121.9980   88.2546 C   0  0  0  0  0  0  0  0  0  0  0  0
  122.8530  121.5018   88.3062 C   0  0  0  0  0  0  0  0  0  0  0  0
  123.7095  121.6314   87.2116 C   0  0  0  0  0  0  0  0  0  0  0  0
  124.9530  121.1024   87.3995 O   0  0  0  0  0  0  0  0  0  0  0  0
  125.9722  121.4703   86.4861 C   0  0  0  0  0  0  0  0  0  0  0  0
  126.6520  120.3891   86.0492 F   0  0  0  0  0  0  0  0  0  0  0  0
  125.4624  122.1417   85.4313 F   0  0  0  0  0  0  0  0  0  0  0  0
  126.8447  122.2864   87.1188 F   0  0  0  0  0  0  0  0  0  0  0  0
  123.2424  122.2744   86.0675 C   0  0  0  0  0  0  0  0  0  0  0  0
  121.9308  122.7711   86.0164 C   0  0  0  0  0  0  0  0  0  0  0  0
  115.4099  121.5553   89.8878 H   0  0  0  0  0  0  0  0  0  0  0  0
  115.3600  122.5182   88.3722 H   0  0  0  0  0  0  0  0  0  0  0  0
  116.0988  120.8808   88.3722 H   0  0  0  0  0  0  0  0  0  0  0  0
  117.2009  122.9855   90.2328 H   0  0  0  0  0  0  0  0  0  0  0  0
  118.0218  121.5873   89.4185 H   0  0  0  0  0  0  0  0  0  0  0  0
  117.1002  123.5466   87.5146 H   0  0  0  0  0  0  0  0  0  0  0  0
  119.1904  122.9214   86.2901 H   0  0  0  0  0  0  0  0  0  0  0  0
  120.8913  121.8989   89.1327 H   0  0  0  0  0  0  0  0  0  0  0  0
  123.2097  121.0038   89.2198 H   0  0  0  0  0  0  0  0  0  0  0  0
  123.9060  122.3936   85.1983 H   0  0  0  0  0  0  0  0  0  0  0  0
  121.5816  123.2877   85.1102 H   0  0  0  0  0  0  0  0  0  0  0  0
  1  2  1  0
  2  3  1  0
  3  4  1  0
  4  5  2  0
  4  6  1  0
  6  7  1  0
  7  8  2  0
  8  9  1  0
  9 10  2  0
 10 11  1  0
 11 12  1  0
 12 13  1  0
 12 14  1  0
 12 15  1  0
 10 16  1  0
 16 17  2  0
 17  7  1  0
  1 18  1  0
  1 19  1  0
  1 20  1  0
  2 21  1  0
  2 22  1  0
  3 23  1  0
  6 24  1  0
  8 25  1  0
  9 26  1  0
 16 27  1  0
 17 28  1  0
M  END
>  <loss>  (25) 
0.7509504556655884

>  <score>  (25) 
-8.205422401428223

$$$$
