YSJZRKVSZPDWMW-UHFFFAOYSA-N
     RDKit          3D

 40 40  0  0  0  0  0  0  0  0999 V2000
  123.2619  121.1491   90.8612 C   0  0  0  0  0  0  0  0  0  0  0  0
  123.3362  120.3725   89.5601 C   0  0  0  0  0  0  0  0  0  0  0  0
  123.0700  121.2424   88.4500 O   0  0  0  0  0  0  0  0  0  0  0  0
  123.8892  121.0904   87.3670 C   0  0  0  0  0  0  0  0  0  0  0  0
  124.3004  120.0165   86.9462 O   0  0  0  0  0  0  0  0  0  0  0  0
  124.2183  122.4304   86.7775 C   0  0  0  0  0  0  0  0  0  0  0  0
  123.2536  122.8669   85.7105 C   0  0  0  0  0  0  0  0  0  0  0  0
  121.9977  122.5479   85.7348 N   0  0  0  0  0  0  0  0  0  0  0  0
  121.2186  123.0354   84.6783 C   0  0  0  0  0  0  0  0  0  0  0  0
  121.3263  122.4952   83.3973 C   0  0  0  0  0  0  0  0  0  0  0  0
  120.5300  122.9844   82.3585 C   0  0  0  0  0  0  0  0  0  0  0  0
  119.6093  124.0134   82.5846 C   0  0  0  0  0  0  0  0  0  0  0  0
  118.9079  124.3873   81.4758 O   0  0  0  0  0  0  0  0  0  0  0  0
  118.5015  125.7414   81.3144 C   0  0  0  0  0  0  0  0  0  0  0  0
  117.1584  125.7228   81.1000 F   0  0  0  0  0  0  0  0  0  0  0  0
  118.6866  126.4343   82.4670 F   0  0  0  0  0  0  0  0  0  0  0  0
  119.2842  126.5333   79.9436 Cl  0  0  0  0  0  0  0  0  0  0  0  0
  119.4882  124.5400   83.8705 C   0  0  0  0  0  0  0  0  0  0  0  0
  120.2873  124.0478   84.9103 C   0  0  0  0  0  0  0  0  0  0  0  0
  125.6354  122.4712   86.2787 C   0  0  0  0  0  0  0  0  0  0  0  0
  126.5645  123.0135   86.8643 O   0  0  0  0  0  0  0  0  0  0  0  0
  125.7586  121.7534   85.1248 O   0  0  0  0  0  0  0  0  0  0  0  0
  127.0908  121.3523   84.7694 C   0  0  0  0  0  0  0  0  0  0  0  0
  128.1038  122.1001   85.6157 C   0  0  0  0  0  0  0  0  0  0  0  0
  123.3287  120.4514   91.7090 H   0  0  0  0  0  0  0  0  0  0  0  0
  124.0956  121.8651   90.9091 H   0  0  0  0  0  0  0  0  0  0  0  0
  122.3074  121.6939   90.9091 H   0  0  0  0  0  0  0  0  0  0  0  0
  124.3422  119.9411   89.4510 H   0  0  0  0  0  0  0  0  0  0  0  0
  122.5842  119.5699   89.5766 H   0  0  0  0  0  0  0  0  0  0  0  0
  124.1150  123.1572   87.5968 H   0  0  0  0  0  0  0  0  0  0  0  0
  123.6278  123.4802   84.8776 H   0  0  0  0  0  0  0  0  0  0  0  0
  122.0405  121.6812   83.2039 H   0  0  0  0  0  0  0  0  0  0  0  0
  120.6281  122.5552   81.3505 H   0  0  0  0  0  0  0  0  0  0  0  0
  118.7636  125.3436   84.0684 H   0  0  0  0  0  0  0  0  0  0  0  0
  120.1792  124.4647   85.9225 H   0  0  0  0  0  0  0  0  0  0  0  0
  127.2026  120.2712   84.9387 H   0  0  0  0  0  0  0  0  0  0  0  0
  127.2660  121.5851   83.7086 H   0  0  0  0  0  0  0  0  0  0  0  0
  127.8832  121.9373   86.6809 H   0  0  0  0  0  0  0  0  0  0  0  0
  129.1148  121.7301   85.3898 H   0  0  0  0  0  0  0  0  0  0  0  0
  128.0479  123.1753   85.3898 H   0  0  0  0  0  0  0  0  0  0  0  0
  1  2  1  0
  2  3  1  0
  3  4  1  0
  4  5  2  0
  4  6  1  0
  6  7  1  0
  7  8  2  3
  8  9  1  0
  9 10  2  0
 10 11  1  0
 11 12  2  0
 12 13  1  0
 13 14  1  0
 14 15  1  0
 14 16  1  0
 14 17  1  0
 12 18  1  0
 18 19  2  0
  6 20  1  0
 20 21  2  0
 20 22  1  0
 22 23  1  0
 23 24  1  0
 19  9  1  0
  1 25  1  0
  1 26  1  0
  1 27  1  0
  2 28  1  0
  2 29  1  0
  6 30  1  0
  7 31  1  0
 10 32  1  0
 11 33  1  0
 18 34  1  0
 19 35  1  0
 23 36  1  0
 23 37  1  0
 24 38  1  0
 24 39  1  0
 24 40  1  0
M  END
>  <loss>  (1) 
0.6155980229377747

>  <score>  (1) 
1.4532908201217651

$$$$
YSJZRKVSZPDWMW-UHFFFAOYSA-N
     RDKit          3D

 40 40  0  0  0  0  0  0  0  0999 V2000
  125.3126  119.6284   87.8652 C   0  0  0  0  0  0  0  0  0  0  0  0
  125.4613  121.1369   87.9202 C   0  0  0  0  0  0  0  0  0  0  0  0
  125.8061  121.6511   86.6239 O   0  0  0  0  0  0  0  0  0  0  0  0
  125.0565  122.6992   86.1768 C   0  0  0  0  0  0  0  0  0  0  0  0
  124.8119  123.7061   86.8308 O   0  0  0  0  0  0  0  0  0  0  0  0
  124.4963  122.4177   84.8129 C   0  0  0  0  0  0  0  0  0  0  0  0
  123.1612  123.0788   84.6219 C   0  0  0  0  0  0  0  0  0  0  0  0
  122.0939  122.4148   84.3096 N   0  0  0  0  0  0  0  0  0  0  0  0
  120.9180  123.1567   84.1468 C   0  0  0  0  0  0  0  0  0  0  0  0
  120.4513  124.0153   85.1461 C   0  0  0  0  0  0  0  0  0  0  0  0
  119.2829  124.7560   84.9491 C   0  0  0  0  0  0  0  0  0  0  0  0
  118.5900  124.6737   83.7380 C   0  0  0  0  0  0  0  0  0  0  0  0
  117.4612  125.4375   83.6579 O   0  0  0  0  0  0  0  0  0  0  0  0
  116.4255  124.9831   82.7838 C   0  0  0  0  0  0  0  0  0  0  0  0
  115.2595  125.4708   83.2857 F   0  0  0  0  0  0  0  0  0  0  0  0
  116.3171  123.6302   82.8418 F   0  0  0  0  0  0  0  0  0  0  0  0
  116.6032  125.5469   81.1182 Cl  0  0  0  0  0  0  0  0  0  0  0  0
  119.0486  123.8145   82.7388 C   0  0  0  0  0  0  0  0  0  0  0  0
  120.2153  123.0681   82.9435 C   0  0  0  0  0  0  0  0  0  0  0  0
  125.4681  122.7056   83.7097 C   0  0  0  0  0  0  0  0  0  0  0  0
  125.7582  121.8905   82.8401 O   0  0  0  0  0  0  0  0  0  0  0  0
  125.9589  123.9740   83.7855 O   0  0  0  0  0  0  0  0  0  0  0  0
  127.3000  124.1587   83.3100 C   0  0  0  0  0  0  0  0  0  0  0  0
  127.5147  125.5987   82.8847 C   0  0  0  0  0  0  0  0  0  0  0  0
  125.2730  119.2263   88.8883 H   0  0  0  0  0  0  0  0  0  0  0  0
  124.3847  119.3706   87.3337 H   0  0  0  0  0  0  0  0  0  0  0  0
  126.1723  119.1944   87.3337 H   0  0  0  0  0  0  0  0  0  0  0  0
  124.5106  121.5837   88.2468 H   0  0  0  0  0  0  0  0  0  0  0  0
  126.2611  121.3921   88.6309 H   0  0  0  0  0  0  0  0  0  0  0  0
  124.3204  121.3334   84.7533 H   0  0  0  0  0  0  0  0  0  0  0  0
  123.0870  124.1686   84.7522 H   0  0  0  0  0  0  0  0  0  0  0  0
  121.0061  124.1082   86.0914 H   0  0  0  0  0  0  0  0  0  0  0  0
  118.9065  125.4075   85.7515 H   0  0  0  0  0  0  0  0  0  0  0  0
  118.4949  123.7237   81.7926 H   0  0  0  0  0  0  0  0  0  0  0  0
  120.5826  122.4041   82.1471 H   0  0  0  0  0  0  0  0  0  0  0  0
  128.0077  123.9085   84.1141 H   0  0  0  0  0  0  0  0  0  0  0  0
  127.4660  123.5014   82.4437 H   0  0  0  0  0  0  0  0  0  0  0  0
  127.6094  126.2345   83.7774 H   0  0  0  0  0  0  0  0  0  0  0  0
  128.4335  125.6706   82.2841 H   0  0  0  0  0  0  0  0  0  0  0  0
  126.6568  125.9354   82.2841 H   0  0  0  0  0  0  0  0  0  0  0  0
  1  2  1  0
  2  3  1  0
  3  4  1  0
  4  5  2  0
  4  6  1  0
  6  7  1  0
  7  8  2  3
  8  9  1  0
  9 10  2  0
 10 11  1  0
 11 12  2  0
 12 13  1  0
 13 14  1  0
 14 15  1  0
 14 16  1  0
 14 17  1  0
 12 18  1  0
 18 19  2  0
  6 20  1  0
 20 21  2  0
 20 22  1  0
 22 23  1  0
 23 24  1  0
 19  9  1  0
  1 25  1  0
  1 26  1  0
  1 27  1  0
  2 28  1  0
  2 29  1  0
  6 30  1  0
  7 31  1  0
 10 32  1  0
 11 33  1  0
 18 34  1  0
 19 35  1  0
 23 36  1  0
 23 37  1  0
 24 38  1  0
 24 39  1  0
 24 40  1  0
M  END
>  <loss>  (2) 
0.5596668720245361

>  <score>  (2) 
1.1251963376998901

$$$$
YSJZRKVSZPDWMW-UHFFFAOYSA-N
     RDKit          3D

 40 40  0  0  0  0  0  0  0  0999 V2000
  124.5903  119.5629   88.0498 C   0  0  0  0  0  0  0  0  0  0  0  0
  124.7371  121.0503   87.7914 C   0  0  0  0  0  0  0  0  0  0  0  0
  125.0739  121.2859   86.4148 O   0  0  0  0  0  0  0  0  0  0  0  0
  124.7014  122.4951   85.9058 C   0  0  0  0  0  0  0  0  0  0  0  0
  124.6374  123.5316   86.5561 O   0  0  0  0  0  0  0  0  0  0  0  0
  124.2939  122.3712   84.4664 C   0  0  0  0  0  0  0  0  0  0  0  0
  122.9675  123.0296   84.2141 C   0  0  0  0  0  0  0  0  0  0  0  0
  121.8405  122.4487   84.4784 N   0  0  0  0  0  0  0  0  0  0  0  0
  120.6778  123.1690   84.1803 C   0  0  0  0  0  0  0  0  0  0  0  0
  120.2051  124.1764   85.0260 C   0  0  0  0  0  0  0  0  0  0  0  0
  119.0505  124.8902   84.6944 C   0  0  0  0  0  0  0  0  0  0  0  0
  118.3780  124.6292   83.4971 C   0  0  0  0  0  0  0  0  0  0  0  0
  117.2612  125.3834   83.2783 O   0  0  0  0  0  0  0  0  0  0  0  0
  116.1197  124.7177   82.7333 C   0  0  0  0  0  0  0  0  0  0  0  0
  115.0286  125.3382   83.2565 F   0  0  0  0  0  0  0  0  0  0  0  0
  116.0643  123.4346   83.1759 F   0  0  0  0  0  0  0  0  0  0  0  0
  116.0244  124.7984   80.9704 Cl  0  0  0  0  0  0  0  0  0  0  0  0
  118.8426  123.6213   82.6515 C   0  0  0  0  0  0  0  0  0  0  0  0
  119.9953  122.9031   82.9915 C   0  0  0  0  0  0  0  0  0  0  0  0
  125.3663  122.8051   83.5147 C   0  0  0  0  0  0  0  0  0  0  0  0
  125.6999  122.1484   82.5338 O   0  0  0  0  0  0  0  0  0  0  0  0
  125.8943  124.0115   83.8626 O   0  0  0  0  0  0  0  0  0  0  0  0
  127.2536  124.2412   83.4645 C   0  0  0  0  0  0  0  0  0  0  0  0
  127.3348  125.4334   82.5304 C   0  0  0  0  0  0  0  0  0  0  0  0
  124.5721  119.3792   89.1342 H   0  0  0  0  0  0  0  0  0  0  0  0
  123.6523  119.2037   87.6014 H   0  0  0  0  0  0  0  0  0  0  0  0
  125.4399  119.0272   87.6014 H   0  0  0  0  0  0  0  0  0  0  0  0
  123.7877  121.5546   88.0242 H   0  0  0  0  0  0  0  0  0  0  0  0
  125.5406  121.4470   88.4295 H   0  0  0  0  0  0  0  0  0  0  0  0
  124.1558  121.2994   84.2608 H   0  0  0  0  0  0  0  0  0  0  0  0
  122.9529  124.0438   83.7885 H   0  0  0  0  0  0  0  0  0  0  0  0
  120.7443  124.4083   85.9564 H   0  0  0  0  0  0  0  0  0  0  0  0
  118.6687  125.6616   85.3793 H   0  0  0  0  0  0  0  0  0  0  0  0
  118.3045  123.3915   81.7200 H   0  0  0  0  0  0  0  0  0  0  0  0
  120.3677  122.1204   82.3143 H   0  0  0  0  0  0  0  0  0  0  0  0
  127.8649  124.4378   84.3576 H   0  0  0  0  0  0  0  0  0  0  0  0
  127.6281  123.3497   82.9400 H   0  0  0  0  0  0  0  0  0  0  0  0
  127.3977  126.3589   83.1216 H   0  0  0  0  0  0  0  0  0  0  0  0
  128.2288  125.3420   81.8960 H   0  0  0  0  0  0  0  0  0  0  0  0
  126.4366  125.4640   81.8960 H   0  0  0  0  0  0  0  0  0  0  0  0
  1  2  1  0
  2  3  1  0
  3  4  1  0
  4  5  2  0
  4  6  1  0
  6  7  1  0
  7  8  2  3
  8  9  1  0
  9 10  2  0
 10 11  1  0
 11 12  2  0
 12 13  1  0
 13 14  1  0
 14 15  1  0
 14 16  1  0
 14 17  1  0
 12 18  1  0
 18 19  2  0
  6 20  1  0
 20 21  2  0
 20 22  1  0
 22 23  1  0
 23 24  1  0
 19  9  1  0
  1 25  1  0
  1 26  1  0
  1 27  1  0
  2 28  1  0
  2 29  1  0
  6 30  1  0
  7 31  1  0
 10 32  1  0
 11 33  1  0
 18 34  1  0
 19 35  1  0
 23 36  1  0
 23 37  1  0
 24 38  1  0
 24 39  1  0
 24 40  1  0
M  END
>  <loss>  (3) 
0.5589904189109802

>  <score>  (3) 
1.0965830087661743

$$$$
YSJZRKVSZPDWMW-UHFFFAOYSA-N
     RDKit          3D

 40 40  0  0  0  0  0  0  0  0999 V2000
  122.4389  121.7682   91.4246 C   0  0  0  0  0  0  0  0  0  0  0  0
  122.3411  120.7793   90.2783 C   0  0  0  0  0  0  0  0  0  0  0  0
  122.3908  121.4725   89.0226 O   0  0  0  0  0  0  0  0  0  0  0  0
  123.3549  121.0523   88.1503 C   0  0  0  0  0  0  0  0  0  0  0  0
  123.7023  119.8878   87.9994 O   0  0  0  0  0  0  0  0  0  0  0  0
  123.9312  122.2261   87.4144 C   0  0  0  0  0  0  0  0  0  0  0  0
  123.1641  122.5885   86.1736 C   0  0  0  0  0  0  0  0  0  0  0  0
  121.8710  122.6723   86.1543 N   0  0  0  0  0  0  0  0  0  0  0  0
  121.2959  123.0300   84.9286 C   0  0  0  0  0  0  0  0  0  0  0  0
  121.6692  122.3918   83.7464 C   0  0  0  0  0  0  0  0  0  0  0  0
  121.0737  122.7518   82.5346 C   0  0  0  0  0  0  0  0  0  0  0  0
  120.0918  123.7474   82.4862 C   0  0  0  0  0  0  0  0  0  0  0  0
  119.6069  123.9917   81.2346 O   0  0  0  0  0  0  0  0  0  0  0  0
  118.5581  124.9354   81.0498 C   0  0  0  0  0  0  0  0  0  0  0  0
  117.7818  124.4628   80.0378 F   0  0  0  0  0  0  0  0  0  0  0  0
  117.7582  124.9784   82.1458 F   0  0  0  0  0  0  0  0  0  0  0  0
  119.1495  126.5402   80.6098 Cl  0  0  0  0  0  0  0  0  0  0  0  0
  119.7049  124.3717   83.6719 C   0  0  0  0  0  0  0  0  0  0  0  0
  120.3030  124.0090   84.8856 C   0  0  0  0  0  0  0  0  0  0  0  0
  125.3879  122.0149   87.1106 C   0  0  0  0  0  0  0  0  0  0  0  0
  126.3109  122.4655   87.7779 O   0  0  0  0  0  0  0  0  0  0  0  0
  125.5387  121.1871   86.0364 O   0  0  0  0  0  0  0  0  0  0  0  0
  126.7454  120.4095   86.0024 C   0  0  0  0  0  0  0  0  0  0  0  0
  127.9413  121.3127   85.7661 C   0  0  0  0  0  0  0  0  0  0  0  0
  122.3854  121.2274   92.3810 H   0  0  0  0  0  0  0  0  0  0  0  0
  123.3949  122.3088   91.3620 H   0  0  0  0  0  0  0  0  0  0  0  0
  121.6073  122.4855   91.3620 H   0  0  0  0  0  0  0  0  0  0  0  0
  123.1808  120.0711   90.3363 H   0  0  0  0  0  0  0  0  0  0  0  0
  121.3874  120.2362   90.3520 H   0  0  0  0  0  0  0  0  0  0  0  0
  123.8368  123.0870   88.0927 H   0  0  0  0  0  0  0  0  0  0  0  0
  123.7213  122.7901   85.2469 H   0  0  0  0  0  0  0  0  0  0  0  0
  122.4349  121.6024   83.7677 H   0  0  0  0  0  0  0  0  0  0  0  0
  121.3807  122.2462   81.6072 H   0  0  0  0  0  0  0  0  0  0  0  0
  118.9285  125.1507   83.6540 H   0  0  0  0  0  0  0  0  0  0  0  0
  119.9859  124.5022   85.8162 H   0  0  0  0  0  0  0  0  0  0  0  0
  126.8685  119.8866   86.9623 H   0  0  0  0  0  0  0  0  0  0  0  0
  126.6794  119.6780   85.1835 H   0  0  0  0  0  0  0  0  0  0  0  0
  128.3592  121.6284   86.7335 H   0  0  0  0  0  0  0  0  0  0  0  0
  128.7072  120.7657   85.1968 H   0  0  0  0  0  0  0  0  0  0  0  0
  127.6245  122.1990   85.1968 H   0  0  0  0  0  0  0  0  0  0  0  0
  1  2  1  0
  2  3  1  0
  3  4  1  0
  4  5  2  0
  4  6  1  0
  6  7  1  0
  7  8  2  3
  8  9  1  0
  9 10  2  0
 10 11  1  0
 11 12  2  0
 12 13  1  0
 13 14  1  0
 14 15  1  0
 14 16  1  0
 14 17  1  0
 12 18  1  0
 18 19  2  0
  6 20  1  0
 20 21  2  0
 20 22  1  0
 22 23  1  0
 23 24  1  0
 19  9  1  0
  1 25  1  0
  1 26  1  0
  1 27  1  0
  2 28  1  0
  2 29  1  0
  6 30  1  0
  7 31  1  0
 10 32  1  0
 11 33  1  0
 18 34  1  0
 19 35  1  0
 23 36  1  0
 23 37  1  0
 24 38  1  0
 24 39  1  0
 24 40  1  0
M  END
>  <loss>  (4) 
0.6261996030807495

>  <score>  (4) 
1.3803507089614868

$$$$
YSJZRKVSZPDWMW-UHFFFAOYSA-N
     RDKit          3D

 40 40  0  0  0  0  0  0  0  0999 V2000
  121.6086  120.9548   89.8920 C   0  0  0  0  0  0  0  0  0  0  0  0
  122.5419  121.9283   89.1970 C   0  0  0  0  0  0  0  0  0  0  0  0
  122.3100  121.9091   87.7798 O   0  0  0  0  0  0  0  0  0  0  0  0
  123.4169  122.0027   86.9886 C   0  0  0  0  0  0  0  0  0  0  0  0
  124.4186  121.3087   87.1070 O   0  0  0  0  0  0  0  0  0  0  0  0
  123.2264  123.0570   85.9383 C   0  0  0  0  0  0  0  0  0  0  0  0
  121.9295  122.8744   85.2043 C   0  0  0  0  0  0  0  0  0  0  0  0
  121.7315  123.4392   84.0556 N   0  0  0  0  0  0  0  0  0  0  0  0
  120.4835  123.2049   83.4645 C   0  0  0  0  0  0  0  0  0  0  0  0
  119.3790  123.9975   83.7751 C   0  0  0  0  0  0  0  0  0  0  0  0
  118.1460  123.7565   83.1635 C   0  0  0  0  0  0  0  0  0  0  0  0
  118.0001  122.7295   82.2244 C   0  0  0  0  0  0  0  0  0  0  0  0
  116.7408  122.6187   81.7120 O   0  0  0  0  0  0  0  0  0  0  0  0
  116.5220  122.7949   80.3169 C   0  0  0  0  0  0  0  0  0  0  0  0
  117.5521  122.2705   79.6040 F   0  0  0  0  0  0  0  0  0  0  0  0
  115.4292  122.0501   79.9969 F   0  0  0  0  0  0  0  0  0  0  0  0
  116.2124  124.4761   79.8777 Cl  0  0  0  0  0  0  0  0  0  0  0  0
  119.1083  121.9457   81.9039 C   0  0  0  0  0  0  0  0  0  0  0  0
  120.3433  122.1890   82.5187 C   0  0  0  0  0  0  0  0  0  0  0  0
  124.3738  123.0831   84.9749 C   0  0  0  0  0  0  0  0  0  0  0  0
  124.8352  124.1030   84.4780 O   0  0  0  0  0  0  0  0  0  0  0  0
  124.8139  121.8217   84.6989 O   0  0  0  0  0  0  0  0  0  0  0  0
  126.1321  121.7634   84.1364 C   0  0  0  0  0  0  0  0  0  0  0  0
  126.5828  120.3156   84.1396 C   0  0  0  0  0  0  0  0  0  0  0  0
  121.7118  121.0624   90.9819 H   0  0  0  0  0  0  0  0  0  0  0  0
  120.5703  121.1695   89.5990 H   0  0  0  0  0  0  0  0  0  0  0  0
  121.8670  119.9265   89.5990 H   0  0  0  0  0  0  0  0  0  0  0  0
  122.3609  122.9430   89.5814 H   0  0  0  0  0  0  0  0  0  0  0  0
  123.5827  121.6327   89.3953 H   0  0  0  0  0  0  0  0  0  0  0  0
  123.1918  124.0263   86.4570 H   0  0  0  0  0  0  0  0  0  0  0  0
  121.1374  122.2532   85.6476 H   0  0  0  0  0  0  0  0  0  0  0  0
  119.4788  124.8153   84.5041 H   0  0  0  0  0  0  0  0  0  0  0  0
  117.2793  124.3818   83.4236 H   0  0  0  0  0  0  0  0  0  0  0  0
  119.0124  121.1347   81.1669 H   0  0  0  0  0  0  0  0  0  0  0  0
  121.2136  121.5712   82.2523 H   0  0  0  0  0  0  0  0  0  0  0  0
  126.1146  122.1460   83.1052 H   0  0  0  0  0  0  0  0  0  0  0  0
  126.8258  122.3794   84.7273 H   0  0  0  0  0  0  0  0  0  0  0  0
  126.6911  119.9676   85.1774 H   0  0  0  0  0  0  0  0  0  0  0  0
  125.8346  119.6975   83.6218 H   0  0  0  0  0  0  0  0  0  0  0  0
  127.5497  120.2314   83.6218 H   0  0  0  0  0  0  0  0  0  0  0  0
  1  2  1  0
  2  3  1  0
  3  4  1  0
  4  5  2  0
  4  6  1  0
  6  7  1  0
  7  8  2  3
  8  9  1  0
  9 10  2  0
 10 11  1  0
 11 12  2  0
 12 13  1  0
 13 14  1  0
 14 15  1  0
 14 16  1  0
 14 17  1  0
 12 18  1  0
 18 19  2  0
  6 20  1  0
 20 21  2  0
 20 22  1  0
 22 23  1  0
 23 24  1  0
 19  9  1  0
  1 25  1  0
  1 26  1  0
  1 27  1  0
  2 28  1  0
  2 29  1  0
  6 30  1  0
  7 31  1  0
 10 32  1  0
 11 33  1  0
 18 34  1  0
 19 35  1  0
 23 36  1  0
 23 37  1  0
 24 38  1  0
 24 39  1  0
 24 40  1  0
M  END
>  <loss>  (5) 
0.6267998218536377

>  <score>  (5) 
1.3752273321151733

$$$$
YSJZRKVSZPDWMW-UHFFFAOYSA-N
     RDKit          3D

 40 40  0  0  0  0  0  0  0  0999 V2000
  123.9175  120.4996   88.7577 C   0  0  0  0  0  0  0  0  0  0  0  0
  123.4079  120.5515   87.3300 C   0  0  0  0  0  0  0  0  0  0  0  0
  122.9198  121.8673   87.0228 O   0  0  0  0  0  0  0  0  0  0  0  0
  123.7063  122.6212   86.2023 C   0  0  0  0  0  0  0  0  0  0  0  0
  124.4943  123.4758   86.5896 O   0  0  0  0  0  0  0  0  0  0  0  0
  123.4142  122.3294   84.7591 C   0  0  0  0  0  0  0  0  0  0  0  0
  121.9488  122.4657   84.4583 C   0  0  0  0  0  0  0  0  0  0  0  0
  121.5005  123.2263   83.5107 N   0  0  0  0  0  0  0  0  0  0  0  0
  120.1110  123.2732   83.3476 C   0  0  0  0  0  0  0  0  0  0  0  0
  119.3345  124.2531   83.9722 C   0  0  0  0  0  0  0  0  0  0  0  0
  117.9510  124.2853   83.7779 C   0  0  0  0  0  0  0  0  0  0  0  0
  117.3352  123.3614   82.9288 C   0  0  0  0  0  0  0  0  0  0  0  0
  115.9801  123.4840   82.8168 O   0  0  0  0  0  0  0  0  0  0  0  0
  115.4174  123.3470   81.5100 C   0  0  0  0  0  0  0  0  0  0  0  0
  114.1434  122.9051   81.6861 F   0  0  0  0  0  0  0  0  0  0  0  0
  116.0574  122.3676   80.8197 F   0  0  0  0  0  0  0  0  0  0  0  0
  115.3699  124.8581   80.5948 Cl  0  0  0  0  0  0  0  0  0  0  0  0
  118.1049  122.3779   82.3065 C   0  0  0  0  0  0  0  0  0  0  0  0
  119.4896  122.3444   82.5103 C   0  0  0  0  0  0  0  0  0  0  0  0
  124.2906  123.0971   83.8174 C   0  0  0  0  0  0  0  0  0  0  0  0
  124.8368  122.5896   82.8433 O   0  0  0  0  0  0  0  0  0  0  0  0
  124.3797  124.4109   84.1658 O   0  0  0  0  0  0  0  0  0  0  0  0
  125.6406  125.0455   83.9084 C   0  0  0  0  0  0  0  0  0  0  0  0
  126.1527  124.6615   82.5332 C   0  0  0  0  0  0  0  0  0  0  0  0
  123.0696  120.5860   89.4531 H   0  0  0  0  0  0  0  0  0  0  0  0
  124.4353  119.5441   88.9277 H   0  0  0  0  0  0  0  0  0  0  0  0
  124.6173  121.3312   88.9277 H   0  0  0  0  0  0  0  0  0  0  0  0
  124.2284  120.2991   86.6423 H   0  0  0  0  0  0  0  0  0  0  0  0
  122.5859  119.8293   87.2169 H   0  0  0  0  0  0  0  0  0  0  0  0
  123.6733  121.2748   84.5837 H   0  0  0  0  0  0  0  0  0  0  0  0
  121.2290  121.8979   85.0661 H   0  0  0  0  0  0  0  0  0  0  0  0
  119.8143  125.0020   84.6194 H   0  0  0  0  0  0  0  0  0  0  0  0
  117.3433  125.0418   84.2960 H   0  0  0  0  0  0  0  0  0  0  0  0
  117.6249  121.6307   81.6573 H   0  0  0  0  0  0  0  0  0  0  0  0
  120.0951  121.5776   82.0050 H   0  0  0  0  0  0  0  0  0  0  0  0
  125.5140  126.1371   83.9566 H   0  0  0  0  0  0  0  0  0  0  0  0
  126.3677  124.7164   84.6655 H   0  0  0  0  0  0  0  0  0  0  0  0
  127.0287  124.0046   82.6384 H   0  0  0  0  0  0  0  0  0  0  0  0
  125.3615  124.1322   81.9820 H   0  0  0  0  0  0  0  0  0  0  0  0
  126.4391  125.5693   81.9820 H   0  0  0  0  0  0  0  0  0  0  0  0
  1  2  1  0
  2  3  1  0
  3  4  1  0
  4  5  2  0
  4  6  1  0
  6  7  1  0
  7  8  2  3
  8  9  1  0
  9 10  2  0
 10 11  1  0
 11 12  2  0
 12 13  1  0
 13 14  1  0
 14 15  1  0
 14 16  1  0
 14 17  1  0
 12 18  1  0
 18 19  2  0
  6 20  1  0
 20 21  2  0
 20 22  1  0
 22 23  1  0
 23 24  1  0
 19  9  1  0
  1 25  1  0
  1 26  1  0
  1 27  1  0
  2 28  1  0
  2 29  1  0
  6 30  1  0
  7 31  1  0
 10 32  1  0
 11 33  1  0
 18 34  1  0
 19 35  1  0
 23 36  1  0
 23 37  1  0
 24 38  1  0
 24 39  1  0
 24 40  1  0
M  END
>  <loss>  (6) 
0.6045671701431274

>  <score>  (6) 
1.1607812643051147

$$$$
YSJZRKVSZPDWMW-UHFFFAOYSA-N
     RDKit          3D

 40 40  0  0  0  0  0  0  0  0999 V2000
  121.9605  121.2571   91.4892 C   0  0  0  0  0  0  0  0  0  0  0  0
  122.6669  120.2732   90.5755 C   0  0  0  0  0  0  0  0  0  0  0  0
  123.6715  120.9495   89.8034 O   0  0  0  0  0  0  0  0  0  0  0  0
  123.6863  120.6776   88.4670 C   0  0  0  0  0  0  0  0  0  0  0  0
  123.4677  119.5769   87.9774 O   0  0  0  0  0  0  0  0  0  0  0  0
  123.9835  121.9197   87.6797 C   0  0  0  0  0  0  0  0  0  0  0  0
  123.1052  122.0256   86.4666 C   0  0  0  0  0  0  0  0  0  0  0  0
  122.6419  123.1717   86.0803 N   0  0  0  0  0  0  0  0  0  0  0  0
  121.8289  123.1513   84.9400 C   0  0  0  0  0  0  0  0  0  0  0  0
  120.5564  123.7217   84.9522 C   0  0  0  0  0  0  0  0  0  0  0  0
  119.7666  123.7036   83.7997 C   0  0  0  0  0  0  0  0  0  0  0  0
  120.2393  123.1276   82.6154 C   0  0  0  0  0  0  0  0  0  0  0  0
  119.3580  123.1890   81.5761 O   0  0  0  0  0  0  0  0  0  0  0  0
  119.1685  124.4129   80.8749 C   0  0  0  0  0  0  0  0  0  0  0  0
  120.3576  125.0407   80.6844 F   0  0  0  0  0  0  0  0  0  0  0  0
  118.7164  124.0851   79.6342 F   0  0  0  0  0  0  0  0  0  0  0  0
  117.9873  125.4715   81.6490 Cl  0  0  0  0  0  0  0  0  0  0  0  0
  121.5173  122.5693   82.5998 C   0  0  0  0  0  0  0  0  0  0  0  0
  122.3072  122.5882   83.7566 C   0  0  0  0  0  0  0  0  0  0  0  0
  125.4281  121.9861   87.2872 C   0  0  0  0  0  0  0  0  0  0  0  0
  126.1113  123.0014   87.3371 O   0  0  0  0  0  0  0  0  0  0  0  0
  125.8720  120.7776   86.8363 O   0  0  0  0  0  0  0  0  0  0  0  0
  127.2904  120.5909   86.9389 C   0  0  0  0  0  0  0  0  0  0  0  0
  127.6773  119.4198   86.0567 C   0  0  0  0  0  0  0  0  0  0  0  0
  122.1540  120.9875   92.5379 H   0  0  0  0  0  0  0  0  0  0  0  0
  122.3371  122.2723   91.2960 H   0  0  0  0  0  0  0  0  0  0  0  0
  120.8780  121.2247   91.2960 H   0  0  0  0  0  0  0  0  0  0  0  0
  123.1420  119.4890   91.1833 H   0  0  0  0  0  0  0  0  0  0  0  0
  121.9306  119.8237   89.8929 H   0  0  0  0  0  0  0  0  0  0  0  0
  123.7661  122.7763   88.3346 H   0  0  0  0  0  0  0  0  0  0  0  0
  122.8520  121.1182   85.8987 H   0  0  0  0  0  0  0  0  0  0  0  0
  120.1732  124.1873   85.8721 H   0  0  0  0  0  0  0  0  0  0  0  0
  118.7606  124.1478   83.8237 H   0  0  0  0  0  0  0  0  0  0  0  0
  121.9059  122.1131   81.6773 H   0  0  0  0  0  0  0  0  0  0  0  0
  123.3174  122.1535   83.7316 H   0  0  0  0  0  0  0  0  0  0  0  0
  127.8113  121.4993   86.6020 H   0  0  0  0  0  0  0  0  0  0  0  0
  127.5736  120.3910   87.9828 H   0  0  0  0  0  0  0  0  0  0  0  0
  127.9601  118.5638   86.6869 H   0  0  0  0  0  0  0  0  0  0  0  0
  126.8234  119.1414   85.4216 H   0  0  0  0  0  0  0  0  0  0  0  0
  128.5290  119.7049   85.4216 H   0  0  0  0  0  0  0  0  0  0  0  0
  1  2  1  0
  2  3  1  0
  3  4  1  0
  4  5  2  0
  4  6  1  0
  6  7  1  0
  7  8  2  3
  8  9  1  0
  9 10  2  0
 10 11  1  0
 11 12  2  0
 12 13  1  0
 13 14  1  0
 14 15  1  0
 14 16  1  0
 14 17  1  0
 12 18  1  0
 18 19  2  0
  6 20  1  0
 20 21  2  0
 20 22  1  0
 22 23  1  0
 23 24  1  0
 19  9  1  0
  1 25  1  0
  1 26  1  0
  1 27  1  0
  2 28  1  0
  2 29  1  0
  6 30  1  0
  7 31  1  0
 10 32  1  0
 11 33  1  0
 18 34  1  0
 19 35  1  0
 23 36  1  0
 23 37  1  0
 24 38  1  0
 24 39  1  0
 24 40  1  0
M  END
>  <loss>  (7) 
0.6317781209945679

>  <score>  (7) 
1.124586582183838

$$$$
YSJZRKVSZPDWMW-UHFFFAOYSA-N
     RDKit          3D

 40 40  0  0  0  0  0  0  0  0999 V2000
  120.6240  121.1674   91.3288 C   0  0  0  0  0  0  0  0  0  0  0  0
  121.6542  120.4732   90.4579 C   0  0  0  0  0  0  0  0  0  0  0  0
  122.4048  121.4437   89.7113 O   0  0  0  0  0  0  0  0  0  0  0  0
  123.2880  120.9473   88.7982 C   0  0  0  0  0  0  0  0  0  0  0  0
  123.6110  119.7696   88.7102 O   0  0  0  0  0  0  0  0  0  0  0  0
  123.7895  122.0407   87.9016 C   0  0  0  0  0  0  0  0  0  0  0  0
  123.0268  122.0857   86.6092 C   0  0  0  0  0  0  0  0  0  0  0  0
  122.4805  123.1860   86.1986 N   0  0  0  0  0  0  0  0  0  0  0  0
  121.7891  123.1105   84.9829 C   0  0  0  0  0  0  0  0  0  0  0  0
  120.5303  123.6915   84.8327 C   0  0  0  0  0  0  0  0  0  0  0  0
  119.8632  123.6175   83.6072 C   0  0  0  0  0  0  0  0  0  0  0  0
  120.4473  122.9739   82.5106 C   0  0  0  0  0  0  0  0  0  0  0  0
  119.6787  122.9862   81.3837 O   0  0  0  0  0  0  0  0  0  0  0  0
  119.6692  124.1331   80.5412 C   0  0  0  0  0  0  0  0  0  0  0  0
  120.9201  124.6493   80.4266 F   0  0  0  0  0  0  0  0  0  0  0  0
  119.3287  123.6997   79.2973 F   0  0  0  0  0  0  0  0  0  0  0  0
  118.5033  125.3537   81.0569 Cl  0  0  0  0  0  0  0  0  0  0  0  0
  121.7122  122.4047   82.6574 C   0  0  0  0  0  0  0  0  0  0  0  0
  122.3788  122.4798   83.8871 C   0  0  0  0  0  0  0  0  0  0  0  0
  125.2580  121.9017   87.6380 C   0  0  0  0  0  0  0  0  0  0  0  0
  126.0239  122.8446   87.4818 O   0  0  0  0  0  0  0  0  0  0  0  0
  125.6226  120.5894   87.5617 O   0  0  0  0  0  0  0  0  0  0  0  0
  126.9561  120.3170   88.0147 C   0  0  0  0  0  0  0  0  0  0  0  0
  127.5288  119.2067   87.1553 C   0  0  0  0  0  0  0  0  0  0  0  0
  120.8687  121.0025   92.3885 H   0  0  0  0  0  0  0  0  0  0  0  0
  120.6301  122.2464   91.1147 H   0  0  0  0  0  0  0  0  0  0  0  0
  119.6263  120.7567   91.1147 H   0  0  0  0  0  0  0  0  0  0  0  0
  122.3396  119.8955   91.0956 H   0  0  0  0  0  0  0  0  0  0  0  0
  121.1382  119.8006   89.7569 H   0  0  0  0  0  0  0  0  0  0  0  0
  123.6241  122.9916   88.4292 H   0  0  0  0  0  0  0  0  0  0  0  0
  122.9307  121.1727   86.0033 H   0  0  0  0  0  0  0  0  0  0  0  0
  120.0609  124.2097   85.6819 H   0  0  0  0  0  0  0  0  0  0  0  0
  118.8664  124.0709   83.5031 H   0  0  0  0  0  0  0  0  0  0  0  0
  122.1872  121.8958   81.8057 H   0  0  0  0  0  0  0  0  0  0  0  0
  123.3799  122.0358   83.9901 H   0  0  0  0  0  0  0  0  0  0  0  0
  127.5749  121.2211   87.9166 H   0  0  0  0  0  0  0  0  0  0  0  0
  126.9445  120.0129   89.0717 H   0  0  0  0  0  0  0  0  0  0  0  0
  127.9367  118.4159   87.8020 H   0  0  0  0  0  0  0  0  0  0  0  0
  126.7343  118.7877   86.5203 H   0  0  0  0  0  0  0  0  0  0  0  0
  128.3307  119.6111   86.5203 H   0  0  0  0  0  0  0  0  0  0  0  0
  1  2  1  0
  2  3  1  0
  3  4  1  0
  4  5  2  0
  4  6  1  0
  6  7  1  0
  7  8  2  3
  8  9  1  0
  9 10  2  0
 10 11  1  0
 11 12  2  0
 12 13  1  0
 13 14  1  0
 14 15  1  0
 14 16  1  0
 14 17  1  0
 12 18  1  0
 18 19  2  0
  6 20  1  0
 20 21  2  0
 20 22  1  0
 22 23  1  0
 23 24  1  0
 19  9  1  0
  1 25  1  0
  1 26  1  0
  1 27  1  0
  2 28  1  0
  2 29  1  0
  6 30  1  0
  7 31  1  0
 10 32  1  0
 11 33  1  0
 18 34  1  0
 19 35  1  0
 23 36  1  0
 23 37  1  0
 24 38  1  0
 24 39  1  0
 24 40  1  0
M  END
>  <loss>  (8) 
0.6231235265731812

>  <score>  (8) 
1.0526915788650513

$$$$
YSJZRKVSZPDWMW-UHFFFAOYSA-N
     RDKit          3D

 40 40  0  0  0  0  0  0  0  0999 V2000
  126.2325  125.3354   81.5222 C   0  0  0  0  0  0  0  0  0  0  0  0
  126.1253  125.1957   83.0290 C   0  0  0  0  0  0  0  0  0  0  0  0
  124.8480  124.6422   83.3831 O   0  0  0  0  0  0  0  0  0  0  0  0
  124.7748  124.0341   84.5989 C   0  0  0  0  0  0  0  0  0  0  0  0
  125.4158  124.3758   85.5866 O   0  0  0  0  0  0  0  0  0  0  0  0
  123.8064  122.8861   84.6061 C   0  0  0  0  0  0  0  0  0  0  0  0
  122.3927  123.2977   84.3115 C   0  0  0  0  0  0  0  0  0  0  0  0
  121.5270  122.4951   83.7782 N   0  0  0  0  0  0  0  0  0  0  0  0
  120.2501  123.0271   83.5639 C   0  0  0  0  0  0  0  0  0  0  0  0
  119.7807  124.0750   84.3530 C   0  0  0  0  0  0  0  0  0  0  0  0
  118.5009  124.5946   84.1422 C   0  0  0  0  0  0  0  0  0  0  0  0
  117.6674  124.0674   83.1494 C   0  0  0  0  0  0  0  0  0  0  0  0
  116.4490  124.6753   83.0649 O   0  0  0  0  0  0  0  0  0  0  0  0
  115.3085  124.0693   83.6627 C   0  0  0  0  0  0  0  0  0  0  0  0
  114.3751  123.9441   82.6812 F   0  0  0  0  0  0  0  0  0  0  0  0
  115.5986  122.8052   84.0646 F   0  0  0  0  0  0  0  0  0  0  0  0
  114.6284  125.0333   84.9752 Cl  0  0  0  0  0  0  0  0  0  0  0  0
  118.1322  123.0083   82.3702 C   0  0  0  0  0  0  0  0  0  0  0  0
  119.4159  122.4897   82.5825 C   0  0  0  0  0  0  0  0  0  0  0  0
  124.3123  121.7773   83.7339 C   0  0  0  0  0  0  0  0  0  0  0  0
  124.6549  121.9028   82.5651 O   0  0  0  0  0  0  0  0  0  0  0  0
  124.3368  120.6034   84.4330 O   0  0  0  0  0  0  0  0  0  0  0  0
  125.1762  120.5884   85.5971 C   0  0  0  0  0  0  0  0  0  0  0  0
  124.6632  119.5705   86.5982 C   0  0  0  0  0  0  0  0  0  0  0  0
  126.8859  126.1862   81.2784 H   0  0  0  0  0  0  0  0  0  0  0  0
  126.6571  124.4137   81.0978 H   0  0  0  0  0  0  0  0  0  0  0  0
  125.2325  125.5078   81.0978 H   0  0  0  0  0  0  0  0  0  0  0  0
  126.9231  124.5304   83.3906 H   0  0  0  0  0  0  0  0  0  0  0  0
  126.2282  126.1886   83.4912 H   0  0  0  0  0  0  0  0  0  0  0  0
  123.7528  122.4946   85.6327 H   0  0  0  0  0  0  0  0  0  0  0  0
  122.0793  124.3228   84.5587 H   0  0  0  0  0  0  0  0  0  0  0  0
  120.4195  124.4944   85.1443 H   0  0  0  0  0  0  0  0  0  0  0  0
  118.1441  125.4286   84.7643 H   0  0  0  0  0  0  0  0  0  0  0  0
  117.4895  122.5794   81.5873 H   0  0  0  0  0  0  0  0  0  0  0  0
  119.7708  121.6489   81.9684 H   0  0  0  0  0  0  0  0  0  0  0  0
  126.2022  120.3231   85.3021 H   0  0  0  0  0  0  0  0  0  0  0  0
  125.1656  121.5857   86.0609 H   0  0  0  0  0  0  0  0  0  0  0  0
  124.8472  119.9356   87.6194 H   0  0  0  0  0  0  0  0  0  0  0  0
  123.5832  119.4231   86.4505 H   0  0  0  0  0  0  0  0  0  0  0  0
  125.1872  118.6146   86.4505 H   0  0  0  0  0  0  0  0  0  0  0  0
  1  2  1  0
  2  3  1  0
  3  4  1  0
  4  5  2  0
  4  6  1  0
  6  7  1  0
  7  8  2  3
  8  9  1  0
  9 10  2  0
 10 11  1  0
 11 12  2  0
 12 13  1  0
 13 14  1  0
 14 15  1  0
 14 16  1  0
 14 17  1  0
 12 18  1  0
 18 19  2  0
  6 20  1  0
 20 21  2  0
 20 22  1  0
 22 23  1  0
 23 24  1  0
 19  9  1  0
  1 25  1  0
  1 26  1  0
  1 27  1  0
  2 28  1  0
  2 29  1  0
  6 30  1  0
  7 31  1  0
 10 32  1  0
 11 33  1  0
 18 34  1  0
 19 35  1  0
 23 36  1  0
 23 37  1  0
 24 38  1  0
 24 39  1  0
 24 40  1  0
M  END
>  <loss>  (9) 
0.6313909292221069

>  <score>  (9) 
1.0743664503097534

$$$$
YSJZRKVSZPDWMW-UHFFFAOYSA-N
     RDKit          3D

 40 40  0  0  0  0  0  0  0  0999 V2000
  120.2882  123.9889   91.2225 C   0  0  0  0  0  0  0  0  0  0  0  0
  119.8882  122.9682   90.1739 C   0  0  0  0  0  0  0  0  0  0  0  0
  120.9264  122.8346   89.1903 O   0  0  0  0  0  0  0  0  0  0  0  0
  120.5469  123.0197   87.8916 C   0  0  0  0  0  0  0  0  0  0  0  0
  119.6336  123.7495   87.5284 O   0  0  0  0  0  0  0  0  0  0  0  0
  121.3905  122.1775   86.9805 C   0  0  0  0  0  0  0  0  0  0  0  0
  122.5520  122.9686   86.4326 C   0  0  0  0  0  0  0  0  0  0  0  0
  122.7251  123.3993   85.2159 N   0  0  0  0  0  0  0  0  0  0  0  0
  121.7395  123.1642   84.2529 C   0  0  0  0  0  0  0  0  0  0  0  0
  121.8690  122.1104   83.3479 C   0  0  0  0  0  0  0  0  0  0  0  0
  120.8833  121.8751   82.3804 C   0  0  0  0  0  0  0  0  0  0  0  0
  119.7641  122.7059   82.3034 C   0  0  0  0  0  0  0  0  0  0  0  0
  118.7355  122.6050   81.4138 O   0  0  0  0  0  0  0  0  0  0  0  0
  119.0116  122.7994   80.0324 C   0  0  0  0  0  0  0  0  0  0  0  0
  118.7779  124.0922   79.6938 F   0  0  0  0  0  0  0  0  0  0  0  0
  120.3153  122.5241   79.7810 F   0  0  0  0  0  0  0  0  0  0  0  0
  117.9803  121.7348   79.0691 Cl  0  0  0  0  0  0  0  0  0  0  0  0
  119.6463  123.7730   83.1996 C   0  0  0  0  0  0  0  0  0  0  0  0
  120.6291  124.0041   84.1641 C   0  0  0  0  0  0  0  0  0  0  0  0
  121.9094  120.9673   87.7010 C   0  0  0  0  0  0  0  0  0  0  0  0
  121.2687  119.9483   87.9165 O   0  0  0  0  0  0  0  0  0  0  0  0
  123.1826  121.1909   88.1363 O   0  0  0  0  0  0  0  0  0  0  0  0
  123.8738  120.0508   88.6712 C   0  0  0  0  0  0  0  0  0  0  0  0
  123.7092  120.0010   90.1776 C   0  0  0  0  0  0  0  0  0  0  0  0
  120.1233  123.5682   92.2254 H   0  0  0  0  0  0  0  0  0  0  0  0
  121.3519  124.2417   91.1012 H   0  0  0  0  0  0  0  0  0  0  0  0
  119.6794  124.8970   91.1012 H   0  0  0  0  0  0  0  0  0  0  0  0
  119.7201  121.9955   90.6592 H   0  0  0  0  0  0  0  0  0  0  0  0
  118.9657  123.3052   89.6785 H   0  0  0  0  0  0  0  0  0  0  0  0
  120.7519  121.8548   86.1450 H   0  0  0  0  0  0  0  0  0  0  0  0
  123.3508  123.2116   87.1486 H   0  0  0  0  0  0  0  0  0  0  0  0
  122.7534  121.4580   83.3944 H   0  0  0  0  0  0  0  0  0  0  0  0
  120.9915  121.0339   81.6800 H   0  0  0  0  0  0  0  0  0  0  0  0
  118.7708  124.4367   83.1442 H   0  0  0  0  0  0  0  0  0  0  0  0
  120.5275  124.8523   84.8571 H   0  0  0  0  0  0  0  0  0  0  0  0
  123.4583  119.1332   88.2293 H   0  0  0  0  0  0  0  0  0  0  0  0
  124.9436  120.1321   88.4285 H   0  0  0  0  0  0  0  0  0  0  0  0
  124.6555  120.2877   90.6596 H   0  0  0  0  0  0  0  0  0  0  0  0
  122.9159  120.6991   90.4831 H   0  0  0  0  0  0  0  0  0  0  0  0
  123.4367  118.9800   90.4831 H   0  0  0  0  0  0  0  0  0  0  0  0
  1  2  1  0
  2  3  1  0
  3  4  1  0
  4  5  2  0
  4  6  1  0
  6  7  1  0
  7  8  2  3
  8  9  1  0
  9 10  2  0
 10 11  1  0
 11 12  2  0
 12 13  1  0
 13 14  1  0
 14 15  1  0
 14 16  1  0
 14 17  1  0
 12 18  1  0
 18 19  2  0
  6 20  1  0
 20 21  2  0
 20 22  1  0
 22 23  1  0
 23 24  1  0
 19  9  1  0
  1 25  1  0
  1 26  1  0
  1 27  1  0
  2 28  1  0
  2 29  1  0
  6 30  1  0
  7 31  1  0
 10 32  1  0
 11 33  1  0
 18 34  1  0
 19 35  1  0
 23 36  1  0
 23 37  1  0
 24 38  1  0
 24 39  1  0
 24 40  1  0
M  END
>  <loss>  (10) 
0.8576169610023499

>  <score>  (10) 
1.1985116004943848

$$$$
YSJZRKVSZPDWMW-UHFFFAOYSA-N
     RDKit          3D

 40 40  0  0  0  0  0  0  0  0999 V2000
  120.1960  124.4432   91.1095 C   0  0  0  0  0  0  0  0  0  0  0  0
  119.7996  123.2865   90.2115 C   0  0  0  0  0  0  0  0  0  0  0  0
  120.7902  123.0892   89.1904 O   0  0  0  0  0  0  0  0  0  0  0  0
  120.3292  123.0760   87.9050 C   0  0  0  0  0  0  0  0  0  0  0  0
  119.3336  123.6716   87.5141 O   0  0  0  0  0  0  0  0  0  0  0  0
  121.2013  122.2035   87.0510 C   0  0  0  0  0  0  0  0  0  0  0  0
  122.4088  122.9612   86.5581 C   0  0  0  0  0  0  0  0  0  0  0  0
  122.6557  123.3759   85.3486 N   0  0  0  0  0  0  0  0  0  0  0  0
  121.7162  123.1552   84.3373 C   0  0  0  0  0  0  0  0  0  0  0  0
  121.9279  122.1666   83.3759 C   0  0  0  0  0  0  0  0  0  0  0  0
  120.9885  121.9460   82.3600 C   0  0  0  0  0  0  0  0  0  0  0  0
  119.8334  122.7270   82.2917 C   0  0  0  0  0  0  0  0  0  0  0  0
  118.8421  122.6335   81.3600 O   0  0  0  0  0  0  0  0  0  0  0  0
  119.1598  122.9074   80.0013 C   0  0  0  0  0  0  0  0  0  0  0  0
  120.1225  123.8612   79.9370 F   0  0  0  0  0  0  0  0  0  0  0  0
  119.6335  121.7857   79.4048 F   0  0  0  0  0  0  0  0  0  0  0  0
  117.7102  123.4655   79.1573 Cl  0  0  0  0  0  0  0  0  0  0  0  0
  119.6331  123.7298   83.2455 C   0  0  0  0  0  0  0  0  0  0  0  0
  120.5699  123.9463   84.2580 C   0  0  0  0  0  0  0  0  0  0  0  0
  121.6522  120.9913   87.8127 C   0  0  0  0  0  0  0  0  0  0  0  0
  120.9971  119.9695   87.9608 O   0  0  0  0  0  0  0  0  0  0  0  0
  122.8768  121.2162   88.3696 O   0  0  0  0  0  0  0  0  0  0  0  0
  123.5000  120.0843   88.9972 C   0  0  0  0  0  0  0  0  0  0  0  0
  123.3237  120.1596   90.5013 C   0  0  0  0  0  0  0  0  0  0  0  0
  120.0928  124.1421   92.1624 H   0  0  0  0  0  0  0  0  0  0  0  0
  121.2409  124.7220   90.9086 H   0  0  0  0  0  0  0  0  0  0  0  0
  119.5416  125.3043   90.9086 H   0  0  0  0  0  0  0  0  0  0  0  0
  119.7128  122.3711   90.8152 H   0  0  0  0  0  0  0  0  0  0  0  0
  118.8346  123.5157   89.7359 H   0  0  0  0  0  0  0  0  0  0  0  0
  120.6017  121.8846   86.1857 H   0  0  0  0  0  0  0  0  0  0  0  0
  123.1749  123.1919   87.3130 H   0  0  0  0  0  0  0  0  0  0  0  0
  122.8410  121.5546   83.4158 H   0  0  0  0  0  0  0  0  0  0  0  0
  121.1616  121.1557   81.6147 H   0  0  0  0  0  0  0  0  0  0  0  0
  118.7287  124.3542   83.1977 H   0  0  0  0  0  0  0  0  0  0  0  0
  120.4033  124.7443   84.9966 H   0  0  0  0  0  0  0  0  0  0  0  0
  123.0365  119.1597   88.6225 H   0  0  0  0  0  0  0  0  0  0  0  0
  124.5741  120.0874   88.7601 H   0  0  0  0  0  0  0  0  0  0  0  0
  124.2272  119.7737   90.9961 H   0  0  0  0  0  0  0  0  0  0  0  0
  123.1609  121.2058   90.7995 H   0  0  0  0  0  0  0  0  0  0  0  0
  122.4553  119.5539   90.7995 H   0  0  0  0  0  0  0  0  0  0  0  0
  1  2  1  0
  2  3  1  0
  3  4  1  0
  4  5  2  0
  4  6  1  0
  6  7  1  0
  7  8  2  3
  8  9  1  0
  9 10  2  0
 10 11  1  0
 11 12  2  0
 12 13  1  0
 13 14  1  0
 14 15  1  0
 14 16  1  0
 14 17  1  0
 12 18  1  0
 18 19  2  0
  6 20  1  0
 20 21  2  0
 20 22  1  0
 22 23  1  0
 23 24  1  0
 19  9  1  0
  1 25  1  0
  1 26  1  0
  1 27  1  0
  2 28  1  0
  2 29  1  0
  6 30  1  0
  7 31  1  0
 10 32  1  0
 11 33  1  0
 18 34  1  0
 19 35  1  0
 23 36  1  0
 23 37  1  0
 24 38  1  0
 24 39  1  0
 24 40  1  0
M  END
>  <loss>  (11) 
0.8635376691818237

>  <score>  (11) 
1.1669789552688599

$$$$
YSJZRKVSZPDWMW-UHFFFAOYSA-N
     RDKit          3D

 40 40  0  0  0  0  0  0  0  0999 V2000
  120.1137  123.8293   91.0019 C   0  0  0  0  0  0  0  0  0  0  0  0
  119.7171  122.8822   89.8851 C   0  0  0  0  0  0  0  0  0  0  0  0
  120.8270  122.6677   88.9990 O   0  0  0  0  0  0  0  0  0  0  0  0
  120.6612  123.1059   87.7163 C   0  0  0  0  0  0  0  0  0  0  0  0
  119.9679  124.0603   87.3887 O   0  0  0  0  0  0  0  0  0  0  0  0
  121.4263  122.2313   86.7673 C   0  0  0  0  0  0  0  0  0  0  0  0
  122.5330  123.0025   86.0923 C   0  0  0  0  0  0  0  0  0  0  0  0
  122.6015  123.3830   84.8489 N   0  0  0  0  0  0  0  0  0  0  0  0
  121.5406  123.1053   83.9819 C   0  0  0  0  0  0  0  0  0  0  0  0
  121.6478  122.0888   83.0324 C   0  0  0  0  0  0  0  0  0  0  0  0
  120.5864  121.8111   82.1610 C   0  0  0  0  0  0  0  0  0  0  0  0
  119.4116  122.5623   82.2255 C   0  0  0  0  0  0  0  0  0  0  0  0
  118.3065  122.4133   81.4405 O   0  0  0  0  0  0  0  0  0  0  0  0
  118.4443  122.5838   80.0355 C   0  0  0  0  0  0  0  0  0  0  0  0
  117.8388  123.7350   79.6499 F   0  0  0  0  0  0  0  0  0  0  0  0
  119.7578  122.6655   79.7089 F   0  0  0  0  0  0  0  0  0  0  0  0
  117.7057  121.2125   79.1995 Cl  0  0  0  0  0  0  0  0  0  0  0  0
  119.3141  123.5931   83.1655 C   0  0  0  0  0  0  0  0  0  0  0  0
  120.3726  123.8665   84.0341 C   0  0  0  0  0  0  0  0  0  0  0  0
  122.0101  121.0490   87.4842 C   0  0  0  0  0  0  0  0  0  0  0  0
  121.4848  119.9480   87.5694 O   0  0  0  0  0  0  0  0  0  0  0  0
  123.1863  121.3965   88.0811 O   0  0  0  0  0  0  0  0  0  0  0  0
  124.0897  120.3169   88.3671 C   0  0  0  0  0  0  0  0  0  0  0  0
  123.4730  119.3766   89.3841 C   0  0  0  0  0  0  0  0  0  0  0  0
  119.9146  123.3540   91.9737 H   0  0  0  0  0  0  0  0  0  0  0  0
  121.1854  124.0634   90.9208 H   0  0  0  0  0  0  0  0  0  0  0  0
  119.5285  124.7572   90.9208 H   0  0  0  0  0  0  0  0  0  0  0  0
  119.4065  121.9198   90.3180 H   0  0  0  0  0  0  0  0  0  0  0  0
  118.8851  123.3247   89.3177 H   0  0  0  0  0  0  0  0  0  0  0  0
  120.7192  121.8776   86.0025 H   0  0  0  0  0  0  0  0  0  0  0  0
  123.3871  123.2773   86.7287 H   0  0  0  0  0  0  0  0  0  0  0  0
  122.5745  121.4998   82.9673 H   0  0  0  0  0  0  0  0  0  0  0  0
  120.6791  120.9994   81.4245 H   0  0  0  0  0  0  0  0  0  0  0  0
  118.3947  124.1943   83.2212 H   0  0  0  0  0  0  0  0  0  0  0  0
  120.2852  124.6859   84.7628 H   0  0  0  0  0  0  0  0  0  0  0  0
  124.2998  119.7632   87.4401 H   0  0  0  0  0  0  0  0  0  0  0  0
  125.0238  120.7283   88.7773 H   0  0  0  0  0  0  0  0  0  0  0  0
  123.7054  119.7309   90.3992 H   0  0  0  0  0  0  0  0  0  0  0  0
  122.3821  119.3509   89.2455 H   0  0  0  0  0  0  0  0  0  0  0  0
  123.8841  118.3658   89.2455 H   0  0  0  0  0  0  0  0  0  0  0  0
  1  2  1  0
  2  3  1  0
  3  4  1  0
  4  5  2  0
  4  6  1  0
  6  7  1  0
  7  8  2  3
  8  9  1  0
  9 10  2  0
 10 11  1  0
 11 12  2  0
 12 13  1  0
 13 14  1  0
 14 15  1  0
 14 16  1  0
 14 17  1  0
 12 18  1  0
 18 19  2  0
  6 20  1  0
 20 21  2  0
 20 22  1  0
 22 23  1  0
 23 24  1  0
 19  9  1  0
  1 25  1  0
  1 26  1  0
  1 27  1  0
  2 28  1  0
  2 29  1  0
  6 30  1  0
  7 31  1  0
 10 32  1  0
 11 33  1  0
 18 34  1  0
 19 35  1  0
 23 36  1  0
 23 37  1  0
 24 38  1  0
 24 39  1  0
 24 40  1  0
M  END
>  <loss>  (12) 
0.8733360171318054

>  <score>  (12) 
1.1881994009017944

$$$$
YSJZRKVSZPDWMW-UHFFFAOYSA-N
     RDKit          3D

 40 40  0  0  0  0  0  0  0  0999 V2000
  119.8540  124.5394   90.7760 C   0  0  0  0  0  0  0  0  0  0  0  0
  119.9455  123.1513   90.1708 C   0  0  0  0  0  0  0  0  0  0  0  0
  120.8579  123.1529   89.0615 O   0  0  0  0  0  0  0  0  0  0  0  0
  120.3649  122.6743   87.8814 C   0  0  0  0  0  0  0  0  0  0  0  0
  119.1983  122.7689   87.5224 O   0  0  0  0  0  0  0  0  0  0  0  0
  121.4520  121.9912   87.1050 C   0  0  0  0  0  0  0  0  0  0  0  0
  122.5173  122.9733   86.6857 C   0  0  0  0  0  0  0  0  0  0  0  0
  122.7157  123.4843   85.5045 N   0  0  0  0  0  0  0  0  0  0  0  0
  121.8549  123.1518   84.4544 C   0  0  0  0  0  0  0  0  0  0  0  0
  122.1639  122.1018   83.5893 C   0  0  0  0  0  0  0  0  0  0  0  0
  121.3035  121.7691   82.5347 C   0  0  0  0  0  0  0  0  0  0  0  0
  120.1307  122.4982   82.3302 C   0  0  0  0  0  0  0  0  0  0  0  0
  119.2086  122.2966   81.3460 O   0  0  0  0  0  0  0  0  0  0  0  0
  119.5526  122.6477   80.0116 C   0  0  0  0  0  0  0  0  0  0  0  0
  118.8035  123.7036   79.6059 F   0  0  0  0  0  0  0  0  0  0  0  0
  120.8587  123.0069   79.9529 F   0  0  0  0  0  0  0  0  0  0  0  0
  119.2646  121.2675   78.9453 Cl  0  0  0  0  0  0  0  0  0  0  0  0
  119.8331  123.5623   83.1874 C   0  0  0  0  0  0  0  0  0  0  0  0
  120.6913  123.8905   84.2388 C   0  0  0  0  0  0  0  0  0  0  0  0
  122.0786  120.8947   87.9162 C   0  0  0  0  0  0  0  0  0  0  0  0
  121.6038  119.7793   88.0770 O   0  0  0  0  0  0  0  0  0  0  0  0
  123.2273  121.3415   88.5004 O   0  0  0  0  0  0  0  0  0  0  0  0
  124.0499  120.3389   89.1182 C   0  0  0  0  0  0  0  0  0  0  0  0
  123.7826  120.2919   90.6100 C   0  0  0  0  0  0  0  0  0  0  0  0
  119.8591  124.4621   91.8732 H   0  0  0  0  0  0  0  0  0  0  0  0
  120.7144  125.1404   90.4467 H   0  0  0  0  0  0  0  0  0  0  0  0
  118.9220  125.0222   90.4467 H   0  0  0  0  0  0  0  0  0  0  0  0
  120.3032  122.4449   90.9344 H   0  0  0  0  0  0  0  0  0  0  0  0
  118.9495  122.8481   89.8159 H   0  0  0  0  0  0  0  0  0  0  0  0
  120.9915  121.5575   86.2052 H   0  0  0  0  0  0  0  0  0  0  0  0
  123.2119  123.2977   87.4746 H   0  0  0  0  0  0  0  0  0  0  0  0
  123.0918  121.5297   83.7366 H   0  0  0  0  0  0  0  0  0  0  0  0
  121.5527  120.9317   81.8665 H   0  0  0  0  0  0  0  0  0  0  0  0
  118.9141  124.1464   83.0318 H   0  0  0  0  0  0  0  0  0  0  0  0
  120.4487  124.7354   84.9001 H   0  0  0  0  0  0  0  0  0  0  0  0
  123.8212  119.3578   88.6766 H   0  0  0  0  0  0  0  0  0  0  0  0
  125.1081  120.5878   88.9499 H   0  0  0  0  0  0  0  0  0  0  0  0
  124.7229  120.4573   91.1564 H   0  0  0  0  0  0  0  0  0  0  0  0
  123.0600  121.0768   90.8779 H   0  0  0  0  0  0  0  0  0  0  0  0
  123.3710  119.3076   90.8779 H   0  0  0  0  0  0  0  0  0  0  0  0
  1  2  1  0
  2  3  1  0
  3  4  1  0
  4  5  2  0
  4  6  1  0
  6  7  1  0
  7  8  2  3
  8  9  1  0
  9 10  2  0
 10 11  1  0
 11 12  2  0
 12 13  1  0
 13 14  1  0
 14 15  1  0
 14 16  1  0
 14 17  1  0
 12 18  1  0
 18 19  2  0
  6 20  1  0
 20 21  2  0
 20 22  1  0
 22 23  1  0
 23 24  1  0
 19  9  1  0
  1 25  1  0
  1 26  1  0
  1 27  1  0
  2 28  1  0
  2 29  1  0
  6 30  1  0
  7 31  1  0
 10 32  1  0
 11 33  1  0
 18 34  1  0
 19 35  1  0
 23 36  1  0
 23 37  1  0
 24 38  1  0
 24 39  1  0
 24 40  1  0
M  END
>  <loss>  (13) 
0.8858429193496704

>  <score>  (13) 
1.2147940397262573

$$$$
YSJZRKVSZPDWMW-UHFFFAOYSA-N
     RDKit          3D

 40 40  0  0  0  0  0  0  0  0999 V2000
  123.0489  120.7036   91.5353 C   0  0  0  0  0  0  0  0  0  0  0  0
  123.9149  121.7609   90.8767 C   0  0  0  0  0  0  0  0  0  0  0  0
  124.4630  121.2548   89.6492 O   0  0  0  0  0  0  0  0  0  0  0  0
  123.5620  120.8369   88.7181 C   0  0  0  0  0  0  0  0  0  0  0  0
  122.4638  120.3585   88.9794 O   0  0  0  0  0  0  0  0  0  0  0  0
  124.0591  121.0318   87.3143 C   0  0  0  0  0  0  0  0  0  0  0  0
  123.0176  121.5860   86.3854 C   0  0  0  0  0  0  0  0  0  0  0  0
  123.1383  122.7388   85.8069 N   0  0  0  0  0  0  0  0  0  0  0  0
  122.0818  123.1173   84.9703 C   0  0  0  0  0  0  0  0  0  0  0  0
  121.9504  122.5561   83.7018 C   0  0  0  0  0  0  0  0  0  0  0  0
  120.9003  122.9459   82.8665 C   0  0  0  0  0  0  0  0  0  0  0  0
  119.9744  123.9100   83.2806 C   0  0  0  0  0  0  0  0  0  0  0  0
  119.0096  124.1881   82.3572 O   0  0  0  0  0  0  0  0  0  0  0  0
  119.0784  125.3883   81.5955 C   0  0  0  0  0  0  0  0  0  0  0  0
  117.7953  125.7629   81.3430 F   0  0  0  0  0  0  0  0  0  0  0  0
  119.6201  126.3896   82.3355 F   0  0  0  0  0  0  0  0  0  0  0  0
  119.9229  125.1789   80.0601 Cl  0  0  0  0  0  0  0  0  0  0  0  0
  120.1156  124.4824   84.5445 C   0  0  0  0  0  0  0  0  0  0  0  0
  121.1683  124.0894   85.3807 C   0  0  0  0  0  0  0  0  0  0  0  0
  125.3420  121.8066   87.3229 C   0  0  0  0  0  0  0  0  0  0  0  0
  125.6486  122.6495   88.1564 O   0  0  0  0  0  0  0  0  0  0  0  0
  126.1223  121.4352   86.2643 O   0  0  0  0  0  0  0  0  0  0  0  0
  127.5258  121.3107   86.5376 C   0  0  0  0  0  0  0  0  0  0  0  0
  127.9617  119.8656   86.3849 C   0  0  0  0  0  0  0  0  0  0  0  0
  123.1248  120.7963   92.6287 H   0  0  0  0  0  0  0  0  0  0  0  0
  122.0021  120.8431   91.2273 H   0  0  0  0  0  0  0  0  0  0  0  0
  123.3917  119.7048   91.2273 H   0  0  0  0  0  0  0  0  0  0  0  0
  123.3041  122.6505   90.6632 H   0  0  0  0  0  0  0  0  0  0  0  0
  124.7381  122.0269   91.5562 H   0  0  0  0  0  0  0  0  0  0  0  0
  124.2800  120.0402   86.8925 H   0  0  0  0  0  0  0  0  0  0  0  0
  122.1152  120.9887   86.1881 H   0  0  0  0  0  0  0  0  0  0  0  0
  122.6753  121.8041   83.3570 H   0  0  0  0  0  0  0  0  0  0  0  0
  120.8001  122.4892   81.8708 H   0  0  0  0  0  0  0  0  0  0  0  0
  119.3989  125.2440   84.8854 H   0  0  0  0  0  0  0  0  0  0  0  0
  121.2764  124.5524   86.3727 H   0  0  0  0  0  0  0  0  0  0  0  0
  128.0906  121.9374   85.8318 H   0  0  0  0  0  0  0  0  0  0  0  0
  127.7216  121.6382   87.5693 H   0  0  0  0  0  0  0  0  0  0  0  0
  128.0972  119.4164   87.3798 H   0  0  0  0  0  0  0  0  0  0  0  0
  127.1921  119.3070   85.8321 H   0  0  0  0  0  0  0  0  0  0  0  0
  128.9118  119.8257   85.8321 H   0  0  0  0  0  0  0  0  0  0  0  0
  1  2  1  0
  2  3  1  0
  3  4  1  0
  4  5  2  0
  4  6  1  0
  6  7  1  0
  7  8  2  3
  8  9  1  0
  9 10  2  0
 10 11  1  0
 11 12  2  0
 12 13  1  0
 13 14  1  0
 14 15  1  0
 14 16  1  0
 14 17  1  0
 12 18  1  0
 18 19  2  0
  6 20  1  0
 20 21  2  0
 20 22  1  0
 22 23  1  0
 23 24  1  0
 19  9  1  0
  1 25  1  0
  1 26  1  0
  1 27  1  0
  2 28  1  0
  2 29  1  0
  6 30  1  0
  7 31  1  0
 10 32  1  0
 11 33  1  0
 18 34  1  0
 19 35  1  0
 23 36  1  0
 23 37  1  0
 24 38  1  0
 24 39  1  0
 24 40  1  0
M  END
>  <loss>  (14) 
0.6212338805198669

>  <score>  (14) 
-0.1089773178100586

$$$$
YSJZRKVSZPDWMW-UHFFFAOYSA-N
     RDKit          3D

 40 40  0  0  0  0  0  0  0  0999 V2000
  123.2432  120.4436   91.6354 C   0  0  0  0  0  0  0  0  0  0  0  0
  123.7737  119.9724   90.2945 C   0  0  0  0  0  0  0  0  0  0  0  0
  124.3155  121.0806   89.5608 O   0  0  0  0  0  0  0  0  0  0  0  0
  125.5594  120.8891   89.0290 C   0  0  0  0  0  0  0  0  0  0  0  0
  126.2868  119.9355   89.2764 O   0  0  0  0  0  0  0  0  0  0  0  0
  125.9063  122.0218   88.1080 C   0  0  0  0  0  0  0  0  0  0  0  0
  124.7298  122.5397   87.3287 C   0  0  0  0  0  0  0  0  0  0  0  0
  124.4367  122.1088   86.1421 N   0  0  0  0  0  0  0  0  0  0  0  0
  123.3054  122.6769   85.5433 C   0  0  0  0  0  0  0  0  0  0  0  0
  123.0701  122.5380   84.1760 C   0  0  0  0  0  0  0  0  0  0  0  0
  121.9281  123.0992   83.5984 C   0  0  0  0  0  0  0  0  0  0  0  0
  121.0008  123.7994   84.3778 C   0  0  0  0  0  0  0  0  0  0  0  0
  119.9408  124.2922   83.6745 O   0  0  0  0  0  0  0  0  0  0  0  0
  119.6113  125.6739   83.7596 C   0  0  0  0  0  0  0  0  0  0  0  0
  118.3009  125.7846   83.4118 F   0  0  0  0  0  0  0  0  0  0  0  0
  119.6948  126.1046   85.0442 F   0  0  0  0  0  0  0  0  0  0  0  0
  120.5742  126.6767   82.6707 Cl  0  0  0  0  0  0  0  0  0  0  0  0
  121.2270  123.9212   85.7487 C   0  0  0  0  0  0  0  0  0  0  0  0
  122.3723  123.3576   86.3255 C   0  0  0  0  0  0  0  0  0  0  0  0
  127.0422  121.6519   87.1959 C   0  0  0  0  0  0  0  0  0  0  0  0
  128.0837  122.2873   87.0879 O   0  0  0  0  0  0  0  0  0  0  0  0
  126.7856  120.4694   86.5654 O   0  0  0  0  0  0  0  0  0  0  0  0
  127.7143  120.0857   85.5396 C   0  0  0  0  0  0  0  0  0  0  0  0
  128.8046  121.1321   85.4055 C   0  0  0  0  0  0  0  0  0  0  0  0
  123.8003  119.9487   92.4446 H   0  0  0  0  0  0  0  0  0  0  0  0
  123.3687  121.5334   91.7170 H   0  0  0  0  0  0  0  0  0  0  0  0
  122.1758  120.1903   91.7170 H   0  0  0  0  0  0  0  0  0  0  0  0
  124.5630  119.2239   90.4582 H   0  0  0  0  0  0  0  0  0  0  0  0
  122.9495  119.5275   89.7177 H   0  0  0  0  0  0  0  0  0  0  0  0
  126.2320  122.8505   88.7537 H   0  0  0  0  0  0  0  0  0  0  0  0
  124.0936  123.3137   87.7827 H   0  0  0  0  0  0  0  0  0  0  0  0
  123.7857  121.9849   83.5499 H   0  0  0  0  0  0  0  0  0  0  0  0
  121.7559  122.9890   82.5176 H   0  0  0  0  0  0  0  0  0  0  0  0
  120.5043  124.4611   86.3783 H   0  0  0  0  0  0  0  0  0  0  0  0
  122.5380  123.4530   87.4088 H   0  0  0  0  0  0  0  0  0  0  0  0
  128.1683  119.1190   85.8030 H   0  0  0  0  0  0  0  0  0  0  0  0
  127.1785  119.9994   84.5828 H   0  0  0  0  0  0  0  0  0  0  0  0
  129.1342  121.4485   86.4061 H   0  0  0  0  0  0  0  0  0  0  0  0
  129.6569  120.7053   84.8566 H   0  0  0  0  0  0  0  0  0  0  0  0
  128.4131  122.0013   84.8566 H   0  0  0  0  0  0  0  0  0  0  0  0
  1  2  1  0
  2  3  1  0
  3  4  1  0
  4  5  2  0
  4  6  1  0
  6  7  1  0
  7  8  2  3
  8  9  1  0
  9 10  2  0
 10 11  1  0
 11 12  2  0
 12 13  1  0
 13 14  1  0
 14 15  1  0
 14 16  1  0
 14 17  1  0
 12 18  1  0
 18 19  2  0
  6 20  1  0
 20 21  2  0
 20 22  1  0
 22 23  1  0
 23 24  1  0
 19  9  1  0
  1 25  1  0
  1 26  1  0
  1 27  1  0
  2 28  1  0
  2 29  1  0
  6 30  1  0
  7 31  1  0
 10 32  1  0
 11 33  1  0
 18 34  1  0
 19 35  1  0
 23 36  1  0
 23 37  1  0
 24 38  1  0
 24 39  1  0
 24 40  1  0
M  END
>  <loss>  (15) 
0.7002190351486206

>  <score>  (15) 
-0.4102112054824829

$$$$
YSJZRKVSZPDWMW-UHFFFAOYSA-N
     RDKit          3D

 40 40  0  0  0  0  0  0  0  0999 V2000
  122.2989  120.3906   91.4050 C   0  0  0  0  0  0  0  0  0  0  0  0
  122.3664  119.6317   90.0931 C   0  0  0  0  0  0  0  0  0  0  0  0
  123.5140  120.0491   89.3370 O   0  0  0  0  0  0  0  0  0  0  0  0
  123.6652  121.3966   89.1749 C   0  0  0  0  0  0  0  0  0  0  0  0
  123.1855  122.2469   89.9136 O   0  0  0  0  0  0  0  0  0  0  0  0
  124.4773  121.6825   87.9461 C   0  0  0  0  0  0  0  0  0  0  0  0
  124.8093  123.1504   87.8457 C   0  0  0  0  0  0  0  0  0  0  0  0
  124.3785  124.0112   86.9687 N   0  0  0  0  0  0  0  0  0  0  0  0
  123.4687  123.6028   85.9890 C   0  0  0  0  0  0  0  0  0  0  0  0
  123.8999  122.8747   84.8799 C   0  0  0  0  0  0  0  0  0  0  0  0
  122.9897  122.4670   83.8958 C   0  0  0  0  0  0  0  0  0  0  0  0
  121.6387  122.7999   84.0093 C   0  0  0  0  0  0  0  0  0  0  0  0
  120.6458  122.4822   83.1303 O   0  0  0  0  0  0  0  0  0  0  0  0
  120.4161  123.3464   82.0247 C   0  0  0  0  0  0  0  0  0  0  0  0
  120.0767  124.5824   82.4694 F   0  0  0  0  0  0  0  0  0  0  0  0
  121.5472  123.4576   81.2852 F   0  0  0  0  0  0  0  0  0  0  0  0
  119.1119  122.6931   81.0260 Cl  0  0  0  0  0  0  0  0  0  0  0  0
  121.2126  123.5463   85.1125 C   0  0  0  0  0  0  0  0  0  0  0  0
  122.1214  123.9496   86.0928 C   0  0  0  0  0  0  0  0  0  0  0  0
  125.7485  120.8845   87.9492 C   0  0  0  0  0  0  0  0  0  0  0  0
  125.9269  119.8478   88.5727 O   0  0  0  0  0  0  0  0  0  0  0  0
  126.6999  121.5155   87.2028 O   0  0  0  0  0  0  0  0  0  0  0  0
  128.0265  120.9704   87.2835 C   0  0  0  0  0  0  0  0  0  0  0  0
  128.7620  121.5622   88.4700 C   0  0  0  0  0  0  0  0  0  0  0  0
  122.3620  119.6808   92.2429 H   0  0  0  0  0  0  0  0  0  0  0  0
  123.1376  121.1002   91.4616 H   0  0  0  0  0  0  0  0  0  0  0  0
  121.3483  120.9412   91.4616 H   0  0  0  0  0  0  0  0  0  0  0  0
  122.4401  118.5539   90.3003 H   0  0  0  0  0  0  0  0  0  0  0  0
  121.4571  119.8408   89.5104 H   0  0  0  0  0  0  0  0  0  0  0  0
  123.8704  121.3929   87.0756 H   0  0  0  0  0  0  0  0  0  0  0  0
  125.5003  123.5419   88.6068 H   0  0  0  0  0  0  0  0  0  0  0  0
  124.9646  122.6181   84.7770 H   0  0  0  0  0  0  0  0  0  0  0  0
  123.3404  121.8834   83.0318 H   0  0  0  0  0  0  0  0  0  0  0  0
  120.1511  123.8183   85.2089 H   0  0  0  0  0  0  0  0  0  0  0  0
  121.7735  124.5435   86.9508 H   0  0  0  0  0  0  0  0  0  0  0  0
  127.9646  119.8785   87.4017 H   0  0  0  0  0  0  0  0  0  0  0  0
  128.5736  121.2168   86.3616 H   0  0  0  0  0  0  0  0  0  0  0  0
  128.3076  121.1966   89.4026 H   0  0  0  0  0  0  0  0  0  0  0  0
  129.8191  121.2600   88.4341 H   0  0  0  0  0  0  0  0  0  0  0  0
  128.6929  122.6595   88.4341 H   0  0  0  0  0  0  0  0  0  0  0  0
  1  2  1  0
  2  3  1  0
  3  4  1  0
  4  5  2  0
  4  6  1  0
  6  7  1  0
  7  8  2  3
  8  9  1  0
  9 10  2  0
 10 11  1  0
 11 12  2  0
 12 13  1  0
 13 14  1  0
 14 15  1  0
 14 16  1  0
 14 17  1  0
 12 18  1  0
 18 19  2  0
  6 20  1  0
 20 21  2  0
 20 22  1  0
 22 23  1  0
 23 24  1  0
 19  9  1  0
  1 25  1  0
  1 26  1  0
  1 27  1  0
  2 28  1  0
  2 29  1  0
  6 30  1  0
  7 31  1  0
 10 32  1  0
 11 33  1  0
 18 34  1  0
 19 35  1  0
 23 36  1  0
 23 37  1  0
 24 38  1  0
 24 39  1  0
 24 40  1  0
M  END
>  <loss>  (16) 
0.7281893491744995

>  <score>  (16) 
-0.4866185188293457

$$$$
YSJZRKVSZPDWMW-UHFFFAOYSA-N
     RDKit          3D

 40 40  0  0  0  0  0  0  0  0999 V2000
  124.2242  122.3255   91.9662 C   0  0  0  0  0  0  0  0  0  0  0  0
  123.4830  121.1947   91.2782 C   0  0  0  0  0  0  0  0  0  0  0  0
  123.8223  121.1599   89.8829 O   0  0  0  0  0  0  0  0  0  0  0  0
  124.8349  120.3198   89.5332 C   0  0  0  0  0  0  0  0  0  0  0  0
  125.3346  119.4853   90.2795 O   0  0  0  0  0  0  0  0  0  0  0  0
  125.2793  120.5208   88.1127 C   0  0  0  0  0  0  0  0  0  0  0  0
  124.2360  121.1683   87.2484 C   0  0  0  0  0  0  0  0  0  0  0  0
  124.4817  122.2071   86.5145 N   0  0  0  0  0  0  0  0  0  0  0  0
  123.4047  122.6959   85.7657 C   0  0  0  0  0  0  0  0  0  0  0  0
  123.2302  122.3022   84.4406 C   0  0  0  0  0  0  0  0  0  0  0  0
  122.1599  122.8021   83.6944 C   0  0  0  0  0  0  0  0  0  0  0  0
  121.2564  123.7111   84.2562 C   0  0  0  0  0  0  0  0  0  0  0  0
  120.2676  124.1109   83.4057 O   0  0  0  0  0  0  0  0  0  0  0  0
  119.3897  125.1663   83.7811 C   0  0  0  0  0  0  0  0  0  0  0  0
  118.3097  125.0854   82.9580 F   0  0  0  0  0  0  0  0  0  0  0  0
  118.9163  124.9654   85.0378 F   0  0  0  0  0  0  0  0  0  0  0  0
  120.1213  126.7626   83.6050 Cl  0  0  0  0  0  0  0  0  0  0  0  0
  121.4407  124.1165   85.5779 C   0  0  0  0  0  0  0  0  0  0  0  0
  122.5137  123.6133   86.3245 C   0  0  0  0  0  0  0  0  0  0  0  0
  126.6104  121.2089   88.0797 C   0  0  0  0  0  0  0  0  0  0  0  0
  127.1280  121.7840   89.0286 O   0  0  0  0  0  0  0  0  0  0  0  0
  127.1644  121.1009   86.8352 O   0  0  0  0  0  0  0  0  0  0  0  0
  128.1767  122.0674   86.5174 C   0  0  0  0  0  0  0  0  0  0  0  0
  129.5135  121.6301   87.0859 C   0  0  0  0  0  0  0  0  0  0  0  0
  124.1455  122.2054   93.0568 H   0  0  0  0  0  0  0  0  0  0  0  0
  125.2835  122.3031   91.6704 H   0  0  0  0  0  0  0  0  0  0  0  0
  123.7812  123.2879   91.6704 H   0  0  0  0  0  0  0  0  0  0  0  0
  123.7632  120.2388   91.7448 H   0  0  0  0  0  0  0  0  0  0  0  0
  122.4001  121.3581   91.3817 H   0  0  0  0  0  0  0  0  0  0  0  0
  125.4137  119.5291   87.6562 H   0  0  0  0  0  0  0  0  0  0  0  0
  123.2215  120.7430   87.2379 H   0  0  0  0  0  0  0  0  0  0  0  0
  123.9371  121.5959   83.9807 H   0  0  0  0  0  0  0  0  0  0  0  0
  122.0257  122.4769   82.6521 H   0  0  0  0  0  0  0  0  0  0  0  0
  120.7421  124.8328   86.0348 H   0  0  0  0  0  0  0  0  0  0  0  0
  122.6557  123.9451   87.3636 H   0  0  0  0  0  0  0  0  0  0  0  0
  128.2596  122.1612   85.4246 H   0  0  0  0  0  0  0  0  0  0  0  0
  127.8989  123.0368   86.9569 H   0  0  0  0  0  0  0  0  0  0  0  0
  129.4672  121.6453   88.1849 H   0  0  0  0  0  0  0  0  0  0  0  0
  129.7421  120.6104   86.7426 H   0  0  0  0  0  0  0  0  0  0  0  0
  130.3006  122.3177   86.7426 H   0  0  0  0  0  0  0  0  0  0  0  0
  1  2  1  0
  2  3  1  0
  3  4  1  0
  4  5  2  0
  4  6  1  0
  6  7  1  0
  7  8  2  3
  8  9  1  0
  9 10  2  0
 10 11  1  0
 11 12  2  0
 12 13  1  0
 13 14  1  0
 14 15  1  0
 14 16  1  0
 14 17  1  0
 12 18  1  0
 18 19  2  0
  6 20  1  0
 20 21  2  0
 20 22  1  0
 22 23  1  0
 23 24  1  0
 19  9  1  0
  1 25  1  0
  1 26  1  0
  1 27  1  0
  2 28  1  0
  2 29  1  0
  6 30  1  0
  7 31  1  0
 10 32  1  0
 11 33  1  0
 18 34  1  0
 19 35  1  0
 23 36  1  0
 23 37  1  0
 24 38  1  0
 24 39  1  0
 24 40  1  0
M  END
>  <loss>  (17) 
0.713047444820404

>  <score>  (17) 
-1.4393986463546753

$$$$
YSJZRKVSZPDWMW-UHFFFAOYSA-N
     RDKit          3D

 40 40  0  0  0  0  0  0  0  0999 V2000
  122.5782  119.0347   90.2919 C   0  0  0  0  0  0  0  0  0  0  0  0
  123.2225  120.2585   90.9156 C   0  0  0  0  0  0  0  0  0  0  0  0
  123.7805  121.0985   89.8931 O   0  0  0  0  0  0  0  0  0  0  0  0
  125.0260  120.7611   89.4517 C   0  0  0  0  0  0  0  0  0  0  0  0
  125.6553  119.7795   89.8252 O   0  0  0  0  0  0  0  0  0  0  0  0
  125.5071  121.7461   88.4274 C   0  0  0  0  0  0  0  0  0  0  0  0
  124.4975  121.9392   87.3330 C   0  0  0  0  0  0  0  0  0  0  0  0
  124.1100  123.1262   86.9890 N   0  0  0  0  0  0  0  0  0  0  0  0
  123.1611  123.1871   85.9606 C   0  0  0  0  0  0  0  0  0  0  0  0
  121.8924  123.7221   86.1818 C   0  0  0  0  0  0  0  0  0  0  0  0
  120.9649  123.7869   85.1387 C   0  0  0  0  0  0  0  0  0  0  0  0
  121.2936  123.3307   83.8575 C   0  0  0  0  0  0  0  0  0  0  0  0
  120.2884  123.4623   82.9448 O   0  0  0  0  0  0  0  0  0  0  0  0
  120.4429  122.9302   81.6340 C   0  0  0  0  0  0  0  0  0  0  0  0
  121.3233  121.8961   81.6414 F   0  0  0  0  0  0  0  0  0  0  0  0
  119.2412  122.3949   81.2868 F   0  0  0  0  0  0  0  0  0  0  0  0
  120.8846  124.1560   80.4434 Cl  0  0  0  0  0  0  0  0  0  0  0  0
  122.5672  122.8081   83.6334 C   0  0  0  0  0  0  0  0  0  0  0  0
  123.4952  122.7437   84.6807 C   0  0  0  0  0  0  0  0  0  0  0  0
  126.8293  121.3369   87.8534 C   0  0  0  0  0  0  0  0  0  0  0  0
  127.8018  122.0759   87.7639 O   0  0  0  0  0  0  0  0  0  0  0  0
  126.7970  120.0458   87.4140 O   0  0  0  0  0  0  0  0  0  0  0  0
  127.7554  119.7436   86.3905 C   0  0  0  0  0  0  0  0  0  0  0  0
  127.5919  118.2859   86.0065 C   0  0  0  0  0  0  0  0  0  0  0  0
  122.2239  118.3616   91.0865 H   0  0  0  0  0  0  0  0  0  0  0  0
  121.7271  119.3459   89.6684 H   0  0  0  0  0  0  0  0  0  0  0  0
  123.3166  118.5092   89.6684 H   0  0  0  0  0  0  0  0  0  0  0  0
  122.4631  120.8234   91.4762 H   0  0  0  0  0  0  0  0  0  0  0  0
  124.0259  119.9357   91.5941 H   0  0  0  0  0  0  0  0  0  0  0  0
  125.6400  122.7086   88.9431 H   0  0  0  0  0  0  0  0  0  0  0  0
  124.0817  121.0613   86.8168 H   0  0  0  0  0  0  0  0  0  0  0  0
  121.6210  124.0942   87.1807 H   0  0  0  0  0  0  0  0  0  0  0  0
  119.9638  124.2019   85.3272 H   0  0  0  0  0  0  0  0  0  0  0  0
  122.8435  122.4458   82.6322 H   0  0  0  0  0  0  0  0  0  0  0  0
  124.5002  122.3384   84.4916 H   0  0  0  0  0  0  0  0  0  0  0  0
  127.5773  120.3825   85.5128 H   0  0  0  0  0  0  0  0  0  0  0  0
  128.7757  119.9285   86.7576 H   0  0  0  0  0  0  0  0  0  0  0  0
  127.5230  117.6724   86.9169 H   0  0  0  0  0  0  0  0  0  0  0  0
  126.6744  118.1640   85.4120 H   0  0  0  0  0  0  0  0  0  0  0  0
  128.4595  117.9637   85.4120 H   0  0  0  0  0  0  0  0  0  0  0  0
  1  2  1  0
  2  3  1  0
  3  4  1  0
  4  5  2  0
  4  6  1  0
  6  7  1  0
  7  8  2  3
  8  9  1  0
  9 10  2  0
 10 11  1  0
 11 12  2  0
 12 13  1  0
 13 14  1  0
 14 15  1  0
 14 16  1  0
 14 17  1  0
 12 18  1  0
 18 19  2  0
  6 20  1  0
 20 21  2  0
 20 22  1  0
 22 23  1  0
 23 24  1  0
 19  9  1  0
  1 25  1  0
  1 26  1  0
  1 27  1  0
  2 28  1  0
  2 29  1  0
  6 30  1  0
  7 31  1  0
 10 32  1  0
 11 33  1  0
 18 34  1  0
 19 35  1  0
 23 36  1  0
 23 37  1  0
 24 38  1  0
 24 39  1  0
 24 40  1  0
M  END
>  <loss>  (18) 
0.7611255049705505

>  <score>  (18) 
-1.5008128881454468

$$$$
YSJZRKVSZPDWMW-UHFFFAOYSA-N
     RDKit          3D

 40 40  0  0  0  0  0  0  0  0999 V2000
  121.7295  121.8619   91.8353 C   0  0  0  0  0  0  0  0  0  0  0  0
  121.8684  120.8607   90.7039 C   0  0  0  0  0  0  0  0  0  0  0  0
  122.2128  121.5369   89.4857 O   0  0  0  0  0  0  0  0  0  0  0  0
  123.2333  120.9815   88.7666 C   0  0  0  0  0  0  0  0  0  0  0  0
  123.4931  119.7854   88.7300 O   0  0  0  0  0  0  0  0  0  0  0  0
  123.9932  122.0514   88.0391 C   0  0  0  0  0  0  0  0  0  0  0  0
  123.3882  122.4167   86.7124 C   0  0  0  0  0  0  0  0  0  0  0  0
  122.1076  122.4455   86.5156 N   0  0  0  0  0  0  0  0  0  0  0  0
  121.6908  122.8140   85.2305 C   0  0  0  0  0  0  0  0  0  0  0  0
  122.1336  122.1200   84.1050 C   0  0  0  0  0  0  0  0  0  0  0  0
  121.6953  122.4926   82.8316 C   0  0  0  0  0  0  0  0  0  0  0  0
  120.8029  123.5570   82.6636 C   0  0  0  0  0  0  0  0  0  0  0  0
  120.4696  123.8051   81.3641 O   0  0  0  0  0  0  0  0  0  0  0  0
  119.8854  125.0520   81.0052 C   0  0  0  0  0  0  0  0  0  0  0  0
  118.8331  124.7698   80.1907 F   0  0  0  0  0  0  0  0  0  0  0  0
  119.3595  125.6629   82.0975 F   0  0  0  0  0  0  0  0  0  0  0  0
  121.0046  126.1098   80.1408 Cl  0  0  0  0  0  0  0  0  0  0  0  0
  120.3452  124.2383   83.7913 C   0  0  0  0  0  0  0  0  0  0  0  0
  120.7857  123.8627   85.0669 C   0  0  0  0  0  0  0  0  0  0  0  0
  125.4431  121.6839   87.8926 C   0  0  0  0  0  0  0  0  0  0  0  0
  126.3511  122.4874   87.7191 O   0  0  0  0  0  0  0  0  0  0  0  0
  125.6167  120.3408   88.0590 O   0  0  0  0  0  0  0  0  0  0  0  0
  126.7524  119.9426   88.8423 C   0  0  0  0  0  0  0  0  0  0  0  0
  127.8583  120.9738   88.7188 C   0  0  0  0  0  0  0  0  0  0  0  0
  121.8022  121.3378   92.7997 H   0  0  0  0  0  0  0  0  0  0  0  0
  122.5325  122.6103   91.7632 H   0  0  0  0  0  0  0  0  0  0  0  0
  120.7532  122.3635   91.7632 H   0  0  0  0  0  0  0  0  0  0  0  0
  122.6579  120.1367   90.9538 H   0  0  0  0  0  0  0  0  0  0  0  0
  120.9104  120.3378   90.5667 H   0  0  0  0  0  0  0  0  0  0  0  0
  123.9227  122.9537   88.6644 H   0  0  0  0  0  0  0  0  0  0  0  0
  124.0578  122.6691   85.8770 H   0  0  0  0  0  0  0  0  0  0  0  0
  122.8302  121.2765   84.2200 H   0  0  0  0  0  0  0  0  0  0  0  0
  122.0564  121.9422   81.9503 H   0  0  0  0  0  0  0  0  0  0  0  0
  119.6368  125.0722   83.6787 H   0  0  0  0  0  0  0  0  0  0  0  0
  120.4133  124.4016   85.9506 H   0  0  0  0  0  0  0  0  0  0  0  0
  126.4537  119.8540   89.8973 H   0  0  0  0  0  0  0  0  0  0  0  0
  127.1211  118.9735   88.4751 H   0  0  0  0  0  0  0  0  0  0  0  0
  128.1873  121.2806   89.7227 H   0  0  0  0  0  0  0  0  0  0  0  0
  128.7072  120.5374   88.1722 H   0  0  0  0  0  0  0  0  0  0  0  0
  127.4822  121.8511   88.1722 H   0  0  0  0  0  0  0  0  0  0  0  0
  1  2  1  0
  2  3  1  0
  3  4  1  0
  4  5  2  0
  4  6  1  0
  6  7  1  0
  7  8  2  3
  8  9  1  0
  9 10  2  0
 10 11  1  0
 11 12  2  0
 12 13  1  0
 13 14  1  0
 14 15  1  0
 14 16  1  0
 14 17  1  0
 12 18  1  0
 18 19  2  0
  6 20  1  0
 20 21  2  0
 20 22  1  0
 22 23  1  0
 23 24  1  0
 19  9  1  0
  1 25  1  0
  1 26  1  0
  1 27  1  0
  2 28  1  0
  2 29  1  0
  6 30  1  0
  7 31  1  0
 10 32  1  0
 11 33  1  0
 18 34  1  0
 19 35  1  0
 23 36  1  0
 23 37  1  0
 24 38  1  0
 24 39  1  0
 24 40  1  0
M  END
>  <loss>  (19) 
0.6038267016410828

>  <score>  (19) 
-2.3162479400634766

$$$$
YSJZRKVSZPDWMW-UHFFFAOYSA-N
     RDKit          3D

 40 40  0  0  0  0  0  0  0  0999 V2000
  120.9015  121.9589   91.5808 C   0  0  0  0  0  0  0  0  0  0  0  0
  121.8609  120.8842   91.1050 C   0  0  0  0  0  0  0  0  0  0  0  0
  122.8663  121.4599   90.2562 O   0  0  0  0  0  0  0  0  0  0  0  0
  122.9125  120.9909   88.9763 C   0  0  0  0  0  0  0  0  0  0  0  0
  122.4869  119.9002   88.6182 O   0  0  0  0  0  0  0  0  0  0  0  0
  123.5349  122.0071   88.0647 C   0  0  0  0  0  0  0  0  0  0  0  0
  122.8207  122.0737   86.7458 C   0  0  0  0  0  0  0  0  0  0  0  0
  122.4301  123.2085   86.2588 N   0  0  0  0  0  0  0  0  0  0  0  0
  121.7693  123.1512   85.0252 C   0  0  0  0  0  0  0  0  0  0  0  0
  120.4720  123.6416   84.8795 C   0  0  0  0  0  0  0  0  0  0  0  0
  119.8354  123.5882   83.6368 C   0  0  0  0  0  0  0  0  0  0  0  0
  120.4880  123.0563   82.5192 C   0  0  0  0  0  0  0  0  0  0  0  0
  119.7416  123.0752   81.3775 O   0  0  0  0  0  0  0  0  0  0  0  0
  120.2549  123.6912   80.2017 C   0  0  0  0  0  0  0  0  0  0  0  0
  121.5578  123.3546   80.0187 F   0  0  0  0  0  0  0  0  0  0  0  0
  119.5787  123.1509   79.1520 F   0  0  0  0  0  0  0  0  0  0  0  0
  120.0237  125.4409   80.1868 Cl  0  0  0  0  0  0  0  0  0  0  0  0
  121.7904  122.5783   82.6623 C   0  0  0  0  0  0  0  0  0  0  0  0
  122.4264  122.6325   83.9093 C   0  0  0  0  0  0  0  0  0  0  0  0
  124.9937  121.7349   87.8568 C   0  0  0  0  0  0  0  0  0  0  0  0
  125.8442  122.6038   87.7099 O   0  0  0  0  0  0  0  0  0  0  0  0
  125.2440  120.3945   87.8191 O   0  0  0  0  0  0  0  0  0  0  0  0
  126.5867  120.0318   88.1698 C   0  0  0  0  0  0  0  0  0  0  0  0
  126.8061  118.5868   87.7659 C   0  0  0  0  0  0  0  0  0  0  0  0
  120.8862  121.9761   92.6805 H   0  0  0  0  0  0  0  0  0  0  0  0
  121.2314  122.9381   91.2033 H   0  0  0  0  0  0  0  0  0  0  0  0
  119.8913  121.7419   91.2033 H   0  0  0  0  0  0  0  0  0  0  0  0
  122.3441  120.4167   91.9756 H   0  0  0  0  0  0  0  0  0  0  0  0
  121.3003  120.1276   90.5365 H   0  0  0  0  0  0  0  0  0  0  0  0
  123.4352  122.9857   88.5569 H   0  0  0  0  0  0  0  0  0  0  0  0
  122.6267  121.1469   86.1860 H   0  0  0  0  0  0  0  0  0  0  0  0
  119.9481  124.0719   85.7457 H   0  0  0  0  0  0  0  0  0  0  0  0
  118.8084  123.9690   83.5358 H   0  0  0  0  0  0  0  0  0  0  0  0
  122.3193  122.1578   81.7942 H   0  0  0  0  0  0  0  0  0  0  0  0
  123.4570  122.2614   84.0098 H   0  0  0  0  0  0  0  0  0  0  0  0
  127.2988  120.6797   87.6377 H   0  0  0  0  0  0  0  0  0  0  0  0
  126.7435  120.1527   89.2519 H   0  0  0  0  0  0  0  0  0  0  0  0
  126.9006  117.9643   88.6679 H   0  0  0  0  0  0  0  0  0  0  0  0
  125.9504  118.2392   87.1685 H   0  0  0  0  0  0  0  0  0  0  0  0
  127.7264  118.5088   87.1685 H   0  0  0  0  0  0  0  0  0  0  0  0
  1  2  1  0
  2  3  1  0
  3  4  1  0
  4  5  2  0
  4  6  1  0
  6  7  1  0
  7  8  2  3
  8  9  1  0
  9 10  2  0
 10 11  1  0
 11 12  2  0
 12 13  1  0
 13 14  1  0
 14 15  1  0
 14 16  1  0
 14 17  1  0
 12 18  1  0
 18 19  2  0
  6 20  1  0
 20 21  2  0
 20 22  1  0
 22 23  1  0
 23 24  1  0
 19  9  1  0
  1 25  1  0
  1 26  1  0
  1 27  1  0
  2 28  1  0
  2 29  1  0
  6 30  1  0
  7 31  1  0
 10 32  1  0
 11 33  1  0
 18 34  1  0
 19 35  1  0
 23 36  1  0
 23 37  1  0
 24 38  1  0
 24 39  1  0
 24 40  1  0
M  END
>  <loss>  (20) 
0.6355104446411133

>  <score>  (20) 
-2.323997974395752

$$$$
YSJZRKVSZPDWMW-UHFFFAOYSA-N
     RDKit          3D

 40 40  0  0  0  0  0  0  0  0999 V2000
  122.3279  121.0496   91.8861 C   0  0  0  0  0  0  0  0  0  0  0  0
  121.8809  121.5578   90.5283 C   0  0  0  0  0  0  0  0  0  0  0  0
  123.0160  121.7126   89.6618 O   0  0  0  0  0  0  0  0  0  0  0  0
  123.3366  120.6340   88.8956 C   0  0  0  0  0  0  0  0  0  0  0  0
  123.1297  119.4685   89.2151 O   0  0  0  0  0  0  0  0  0  0  0  0
  123.9749  121.0270   87.5942 C   0  0  0  0  0  0  0  0  0  0  0  0
  122.9930  121.5390   86.5800 C   0  0  0  0  0  0  0  0  0  0  0  0
  123.1187  122.6930   86.0051 N   0  0  0  0  0  0  0  0  0  0  0  0
  122.1206  123.0292   85.0829 C   0  0  0  0  0  0  0  0  0  0  0  0
  122.1175  122.4644   83.8093 C   0  0  0  0  0  0  0  0  0  0  0  0
  121.1253  122.8122   82.8889 C   0  0  0  0  0  0  0  0  0  0  0  0
  120.1300  123.7375   83.2227 C   0  0  0  0  0  0  0  0  0  0  0  0
  119.2345  123.9772   82.2219 O   0  0  0  0  0  0  0  0  0  0  0  0
  119.3573  125.1483   81.4225 C   0  0  0  0  0  0  0  0  0  0  0  0
  118.0936  125.5274   81.0912 F   0  0  0  0  0  0  0  0  0  0  0  0
  119.8733  126.1697   82.1534 F   0  0  0  0  0  0  0  0  0  0  0  0
  120.2763  124.8743   79.9410 Cl  0  0  0  0  0  0  0  0  0  0  0  0
  120.1428  124.3139   84.4926 C   0  0  0  0  0  0  0  0  0  0  0  0
  121.1377  123.9630   85.4140 C   0  0  0  0  0  0  0  0  0  0  0  0
  125.1305  121.9485   87.8425 C   0  0  0  0  0  0  0  0  0  0  0  0
  125.1415  122.8567   88.6637 O   0  0  0  0  0  0  0  0  0  0  0  0
  126.1726  121.6278   87.0188 O   0  0  0  0  0  0  0  0  0  0  0  0
  127.4814  121.7380   87.5974 C   0  0  0  0  0  0  0  0  0  0  0  0
  128.1317  120.3701   87.6831 C   0  0  0  0  0  0  0  0  0  0  0  0
  121.8229  121.6238   92.6769 H   0  0  0  0  0  0  0  0  0  0  0  0
  122.0679  119.9851   91.9829 H   0  0  0  0  0  0  0  0  0  0  0  0
  123.4168  121.1714   91.9829 H   0  0  0  0  0  0  0  0  0  0  0  0
  121.1788  120.8375   90.0831 H   0  0  0  0  0  0  0  0  0  0  0  0
  121.3873  122.5328   90.6531 H   0  0  0  0  0  0  0  0  0  0  0  0
  124.3785  120.1169   87.1263 H   0  0  0  0  0  0  0  0  0  0  0  0
  122.1317  120.9083   86.3145 H   0  0  0  0  0  0  0  0  0  0  0  0
  122.8984  121.7427   83.5274 H   0  0  0  0  0  0  0  0  0  0  0  0
  121.1265  122.3527   81.8895 H   0  0  0  0  0  0  0  0  0  0  0  0
  119.3701  125.0455   84.7712 H   0  0  0  0  0  0  0  0  0  0  0  0
  121.1444  124.4290   86.4104 H   0  0  0  0  0  0  0  0  0  0  0  0
  128.1014  122.3968   86.9714 H   0  0  0  0  0  0  0  0  0  0  0  0
  127.3926  122.1580   88.6102 H   0  0  0  0  0  0  0  0  0  0  0  0
  128.2637  120.0924   88.7392 H   0  0  0  0  0  0  0  0  0  0  0  0
  127.4903  119.6274   87.1861 H   0  0  0  0  0  0  0  0  0  0  0  0
  129.1126  120.3986   87.1861 H   0  0  0  0  0  0  0  0  0  0  0  0
  1  2  1  0
  2  3  1  0
  3  4  1  0
  4  5  2  0
  4  6  1  0
  6  7  1  0
  7  8  2  3
  8  9  1  0
  9 10  2  0
 10 11  1  0
 11 12  2  0
 12 13  1  0
 13 14  1  0
 14 15  1  0
 14 16  1  0
 14 17  1  0
 12 18  1  0
 18 19  2  0
  6 20  1  0
 20 21  2  0
 20 22  1  0
 22 23  1  0
 23 24  1  0
 19  9  1  0
  1 25  1  0
  1 26  1  0
  1 27  1  0
  2 28  1  0
  2 29  1  0
  6 30  1  0
  7 31  1  0
 10 32  1  0
 11 33  1  0
 18 34  1  0
 19 35  1  0
 23 36  1  0
 23 37  1  0
 24 38  1  0
 24 39  1  0
 24 40  1  0
M  END
>  <loss>  (21) 
0.6260395050048828

>  <score>  (21) 
-2.6704719066619873

$$$$
YSJZRKVSZPDWMW-UHFFFAOYSA-N
     RDKit          3D

 40 40  0  0  0  0  0  0  0  0999 V2000
  123.0711  121.3075   92.2865 C   0  0  0  0  0  0  0  0  0  0  0  0
  122.2048  121.7944   91.1402 C   0  0  0  0  0  0  0  0  0  0  0  0
  122.9811  121.8724   89.9342 O   0  0  0  0  0  0  0  0  0  0  0  0
  123.0466  120.7349   89.1892 C   0  0  0  0  0  0  0  0  0  0  0  0
  122.5995  119.6482   89.5390 O   0  0  0  0  0  0  0  0  0  0  0  0
  123.7293  120.9548   87.8696 C   0  0  0  0  0  0  0  0  0  0  0  0
  122.8223  121.5252   86.8176 C   0  0  0  0  0  0  0  0  0  0  0  0
  123.1477  122.5488   86.0934 N   0  0  0  0  0  0  0  0  0  0  0  0
  122.1941  122.9632   85.1560 C   0  0  0  0  0  0  0  0  0  0  0  0
  122.1781  122.4137   83.8758 C   0  0  0  0  0  0  0  0  0  0  0  0
  121.2312  122.8392   82.9405 C   0  0  0  0  0  0  0  0  0  0  0  0
  120.2955  123.8276   83.2659 C   0  0  0  0  0  0  0  0  0  0  0  0
  119.4393  124.1395   82.2508 O   0  0  0  0  0  0  0  0  0  0  0  0
  119.4878  125.4286   81.6497 C   0  0  0  0  0  0  0  0  0  0  0  0
  118.2431  125.6766   81.1601 F   0  0  0  0  0  0  0  0  0  0  0  0
  119.7155  126.3820   82.5892 F   0  0  0  0  0  0  0  0  0  0  0  0
  120.6500  125.5245   80.3251 Cl  0  0  0  0  0  0  0  0  0  0  0  0
  120.3222  124.3880   84.5428 C   0  0  0  0  0  0  0  0  0  0  0  0
  121.2715  123.9592   85.4792 C   0  0  0  0  0  0  0  0  0  0  0  0
  124.9971  121.7296   88.0660 C   0  0  0  0  0  0  0  0  0  0  0  0
  125.1165  122.7107   88.7888 O   0  0  0  0  0  0  0  0  0  0  0  0
  126.0030  121.1814   87.3210 O   0  0  0  0  0  0  0  0  0  0  0  0
  127.3336  121.5848   87.6770 C   0  0  0  0  0  0  0  0  0  0  0  0
  128.0517  120.4509   88.3842 C   0  0  0  0  0  0  0  0  0  0  0  0
  122.5974  121.5738   93.2429 H   0  0  0  0  0  0  0  0  0  0  0  0
  123.1821  120.2149   92.2239 H   0  0  0  0  0  0  0  0  0  0  0  0
  124.0621  121.7809   92.2239 H   0  0  0  0  0  0  0  0  0  0  0  0
  121.3704  121.0932   90.9913 H   0  0  0  0  0  0  0  0  0  0  0  0
  121.8146  122.7939   91.3828 H   0  0  0  0  0  0  0  0  0  0  0  0
  124.0081  119.9709   87.4643 H   0  0  0  0  0  0  0  0  0  0  0  0
  121.8414  121.0545   86.6552 H   0  0  0  0  0  0  0  0  0  0  0  0
  122.9129  121.6428   83.6005 H   0  0  0  0  0  0  0  0  0  0  0  0
  121.2211  122.3916   81.9358 H   0  0  0  0  0  0  0  0  0  0  0  0
  119.5963  125.1683   84.8150 H   0  0  0  0  0  0  0  0  0  0  0  0
  121.2900  124.4129   86.4811 H   0  0  0  0  0  0  0  0  0  0  0  0
  127.8880  121.8541   86.7659 H   0  0  0  0  0  0  0  0  0  0  0  0
  127.2780  122.4516   88.3520 H   0  0  0  0  0  0  0  0  0  0  0  0
  127.9666  120.5853   89.4727 H   0  0  0  0  0  0  0  0  0  0  0  0
  127.5959  119.4921   88.0964 H   0  0  0  0  0  0  0  0  0  0  0  0
  129.1134  120.4532   88.0964 H   0  0  0  0  0  0  0  0  0  0  0  0
  1  2  1  0
  2  3  1  0
  3  4  1  0
  4  5  2  0
  4  6  1  0
  6  7  1  0
  7  8  2  3
  8  9  1  0
  9 10  2  0
 10 11  1  0
 11 12  2  0
 12 13  1  0
 13 14  1  0
 14 15  1  0
 14 16  1  0
 14 17  1  0
 12 18  1  0
 18 19  2  0
  6 20  1  0
 20 21  2  0
 20 22  1  0
 22 23  1  0
 23 24  1  0
 19  9  1  0
  1 25  1  0
  1 26  1  0
  1 27  1  0
  2 28  1  0
  2 29  1  0
  6 30  1  0
  7 31  1  0
 10 32  1  0
 11 33  1  0
 18 34  1  0
 19 35  1  0
 23 36  1  0
 23 37  1  0
 24 38  1  0
 24 39  1  0
 24 40  1  0
M  END
>  <loss>  (22) 
0.6604841351509094

>  <score>  (22) 
-3.9805874824523926

$$$$
YSJZRKVSZPDWMW-UHFFFAOYSA-N
     RDKit          3D

 40 40  0  0  0  0  0  0  0  0999 V2000
  121.8495  122.1636   92.1173 C   0  0  0  0  0  0  0  0  0  0  0  0
  121.5598  121.2252   90.9610 C   0  0  0  0  0  0  0  0  0  0  0  0
  121.9622  121.8287   89.7226 O   0  0  0  0  0  0  0  0  0  0  0  0
  122.8905  121.1353   88.9985 C   0  0  0  0  0  0  0  0  0  0  0  0
  122.9849  119.9148   88.9681 O   0  0  0  0  0  0  0  0  0  0  0  0
  123.7817  122.0875   88.2565 C   0  0  0  0  0  0  0  0  0  0  0  0
  123.2546  122.4654   86.9004 C   0  0  0  0  0  0  0  0  0  0  0  0
  121.9913  122.4394   86.6126 N   0  0  0  0  0  0  0  0  0  0  0  0
  121.6485  122.8281   85.3116 C   0  0  0  0  0  0  0  0  0  0  0  0
  122.1955  122.1848   84.2020 C   0  0  0  0  0  0  0  0  0  0  0  0
  121.8304  122.5764   82.9113 C   0  0  0  0  0  0  0  0  0  0  0  0
  120.9085  123.6094   82.7094 C   0  0  0  0  0  0  0  0  0  0  0  0
  120.6550  123.8815   81.3968 O   0  0  0  0  0  0  0  0  0  0  0  0
  120.0480  125.1153   81.0305 C   0  0  0  0  0  0  0  0  0  0  0  0
  119.2735  124.8609   79.9416 F   0  0  0  0  0  0  0  0  0  0  0  0
  119.1992  125.5351   82.0032 F   0  0  0  0  0  0  0  0  0  0  0  0
  121.2269  126.3611   80.6101 Cl  0  0  0  0  0  0  0  0  0  0  0  0
  120.3471  124.2393   83.8199 C   0  0  0  0  0  0  0  0  0  0  0  0
  120.7144  123.8448   85.1128 C   0  0  0  0  0  0  0  0  0  0  0  0
  125.1857  121.5591   88.1660 C   0  0  0  0  0  0  0  0  0  0  0  0
  126.1680  122.2358   87.8877 O   0  0  0  0  0  0  0  0  0  0  0  0
  125.2252  120.2403   88.5140 O   0  0  0  0  0  0  0  0  0  0  0  0
  126.3468  119.8305   89.3115 C   0  0  0  0  0  0  0  0  0  0  0  0
  127.6076  120.5268   88.8348 C   0  0  0  0  0  0  0  0  0  0  0  0
  121.6863  121.6352   93.0682 H   0  0  0  0  0  0  0  0  0  0  0  0
  122.8942  122.5032   92.0611 H   0  0  0  0  0  0  0  0  0  0  0  0
  121.1779  123.0330   92.0611 H   0  0  0  0  0  0  0  0  0  0  0  0
  122.1156  120.2870   91.1060 H   0  0  0  0  0  0  0  0  0  0  0  0
  120.4798  121.0192   90.9267 H   0  0  0  0  0  0  0  0  0  0  0  0
  123.7948  123.0154   88.8471 H   0  0  0  0  0  0  0  0  0  0  0  0
  123.9682  122.7757   86.1229 H   0  0  0  0  0  0  0  0  0  0  0  0
  122.9168  121.3663   84.3431 H   0  0  0  0  0  0  0  0  0  0  0  0
  122.2733  122.0663   82.0431 H   0  0  0  0  0  0  0  0  0  0  0  0
  119.6143  125.0477   83.6801 H   0  0  0  0  0  0  0  0  0  0  0  0
  120.2605  124.3430   85.9822 H   0  0  0  0  0  0  0  0  0  0  0  0
  126.1611  120.0941   90.3632 H   0  0  0  0  0  0  0  0  0  0  0  0
  126.4783  118.7426   89.2159 H   0  0  0  0  0  0  0  0  0  0  0  0
  128.1976  120.8526   89.7042 H   0  0  0  0  0  0  0  0  0  0  0  0
  128.2039  119.8301   88.2273 H   0  0  0  0  0  0  0  0  0  0  0  0
  127.3356  121.4025   88.2273 H   0  0  0  0  0  0  0  0  0  0  0  0
  1  2  1  0
  2  3  1  0
  3  4  1  0
  4  5  2  0
  4  6  1  0
  6  7  1  0
  7  8  2  3
  8  9  1  0
  9 10  2  0
 10 11  1  0
 11 12  2  0
 12 13  1  0
 13 14  1  0
 14 15  1  0
 14 16  1  0
 14 17  1  0
 12 18  1  0
 18 19  2  0
  6 20  1  0
 20 21  2  0
 20 22  1  0
 22 23  1  0
 23 24  1  0
 19  9  1  0
  1 25  1  0
  1 26  1  0
  1 27  1  0
  2 28  1  0
  2 29  1  0
  6 30  1  0
  7 31  1  0
 10 32  1  0
 11 33  1  0
 18 34  1  0
 19 35  1  0
 23 36  1  0
 23 37  1  0
 24 38  1  0
 24 39  1  0
 24 40  1  0
M  END
>  <loss>  (23) 
0.65370112657547

>  <score>  (23) 
-4.847728729248047

$$$$
YSJZRKVSZPDWMW-UHFFFAOYSA-N
     RDKit          3D

 40 40  0  0  0  0  0  0  0  0999 V2000
  122.8541  120.7894   91.8174 C   0  0  0  0  0  0  0  0  0  0  0  0
  123.0709  119.8927   90.6134 C   0  0  0  0  0  0  0  0  0  0  0  0
  122.9888  120.6586   89.4007 O   0  0  0  0  0  0  0  0  0  0  0  0
  124.1496  121.2363   88.9777 C   0  0  0  0  0  0  0  0  0  0  0  0
  124.9217  121.8532   89.7020 O   0  0  0  0  0  0  0  0  0  0  0  0
  124.3117  121.0943   87.4922 C   0  0  0  0  0  0  0  0  0  0  0  0
  123.2523  121.8579   86.7500 C   0  0  0  0  0  0  0  0  0  0  0  0
  123.3321  122.1046   85.4810 N   0  0  0  0  0  0  0  0  0  0  0  0
  122.2828  122.8398   84.9171 C   0  0  0  0  0  0  0  0  0  0  0  0
  121.6786  123.8962   85.6044 C   0  0  0  0  0  0  0  0  0  0  0  0
  120.6440  124.6232   85.0098 C   0  0  0  0  0  0  0  0  0  0  0  0
  120.2280  124.3252   83.7090 C   0  0  0  0  0  0  0  0  0  0  0  0
  119.2082  125.0967   83.2309 O   0  0  0  0  0  0  0  0  0  0  0  0
  119.2793  125.4976   81.8607 C   0  0  0  0  0  0  0  0  0  0  0  0
  118.0329  125.3228   81.3454 F   0  0  0  0  0  0  0  0  0  0  0  0
  120.0895  124.6591   81.1638 F   0  0  0  0  0  0  0  0  0  0  0  0
  119.7509  127.1863   81.6379 Cl  0  0  0  0  0  0  0  0  0  0  0  0
  120.8243  123.2685   83.0200 C   0  0  0  0  0  0  0  0  0  0  0  0
  121.8552  122.5376   83.6227 C   0  0  0  0  0  0  0  0  0  0  0  0
  125.7026  121.3944   87.0235 C   0  0  0  0  0  0  0  0  0  0  0  0
  126.1893  120.9070   86.0085 O   0  0  0  0  0  0  0  0  0  0  0  0
  126.3334  122.2799   87.8441 O   0  0  0  0  0  0  0  0  0  0  0  0
  127.6549  121.9139   88.2666 C   0  0  0  0  0  0  0  0  0  0  0  0
  128.6932  122.5682   87.3751 C   0  0  0  0  0  0  0  0  0  0  0  0
  122.9951  120.2059   92.7392 H   0  0  0  0  0  0  0  0  0  0  0  0
  123.5779  121.6173   91.7931 H   0  0  0  0  0  0  0  0  0  0  0  0
  121.8319  121.1951   91.7931 H   0  0  0  0  0  0  0  0  0  0  0  0
  124.0651  119.4271   90.6820 H   0  0  0  0  0  0  0  0  0  0  0  0
  122.2915  119.1166   90.6001 H   0  0  0  0  0  0  0  0  0  0  0  0
  124.1594  120.0320   87.2505 H   0  0  0  0  0  0  0  0  0  0  0  0
  122.3753  122.2216   87.3055 H   0  0  0  0  0  0  0  0  0  0  0  0
  122.0190  124.1564   86.6176 H   0  0  0  0  0  0  0  0  0  0  0  0
  120.1541  125.4344   85.5684 H   0  0  0  0  0  0  0  0  0  0  0  0
  120.4853  123.0103   82.0059 H   0  0  0  0  0  0  0  0  0  0  0  0
  122.3338  121.7157   83.0701 H   0  0  0  0  0  0  0  0  0  0  0  0
  127.8084  122.2440   89.3047 H   0  0  0  0  0  0  0  0  0  0  0  0
  127.7625  120.8213   88.1985 H   0  0  0  0  0  0  0  0  0  0  0  0
  129.4599  123.0513   87.9986 H   0  0  0  0  0  0  0  0  0  0  0  0
  129.1651  121.8040   86.7400 H   0  0  0  0  0  0  0  0  0  0  0  0
  128.2075  123.3237   86.7400 H   0  0  0  0  0  0  0  0  0  0  0  0
  1  2  1  0
  2  3  1  0
  3  4  1  0
  4  5  2  0
  4  6  1  0
  6  7  1  0
  7  8  2  3
  8  9  1  0
  9 10  2  0
 10 11  1  0
 11 12  2  0
 12 13  1  0
 13 14  1  0
 14 15  1  0
 14 16  1  0
 14 17  1  0
 12 18  1  0
 18 19  2  0
  6 20  1  0
 20 21  2  0
 20 22  1  0
 22 23  1  0
 23 24  1  0
 19  9  1  0
  1 25  1  0
  1 26  1  0
  1 27  1  0
  2 28  1  0
  2 29  1  0
  6 30  1  0
  7 31  1  0
 10 32  1  0
 11 33  1  0
 18 34  1  0
 19 35  1  0
 23 36  1  0
 23 37  1  0
 24 38  1  0
 24 39  1  0
 24 40  1  0
M  END
>  <loss>  (24) 
0.652627170085907

>  <score>  (24) 
-5.195642471313477

$$$$
YSJZRKVSZPDWMW-UHFFFAOYSA-N
     RDKit          3D

 40 40  0  0  0  0  0  0  0  0999 V2000
  124.0035  121.8942   91.8130 C   0  0  0  0  0  0  0  0  0  0  0  0
  123.3543  120.6673   91.2015 C   0  0  0  0  0  0  0  0  0  0  0  0
  124.2120  120.0967   90.2002 O   0  0  0  0  0  0  0  0  0  0  0  0
  125.1059  120.9488   89.6213 C   0  0  0  0  0  0  0  0  0  0  0  0
  125.4988  121.9923   90.1294 O   0  0  0  0  0  0  0  0  0  0  0  0
  125.4761  120.4858   88.2422 C   0  0  0  0  0  0  0  0  0  0  0  0
  124.5111  121.0024   87.2136 C   0  0  0  0  0  0  0  0  0  0  0  0
  124.3952  122.2628   86.9388 N   0  0  0  0  0  0  0  0  0  0  0  0
  123.4464  122.6095   85.9696 C   0  0  0  0  0  0  0  0  0  0  0  0
  122.3927  123.4815   86.2575 C   0  0  0  0  0  0  0  0  0  0  0  0
  121.4698  123.8226   85.2653 C   0  0  0  0  0  0  0  0  0  0  0  0
  121.6118  123.3247   83.9669 C   0  0  0  0  0  0  0  0  0  0  0  0
  120.6512  123.7207   83.0813 O   0  0  0  0  0  0  0  0  0  0  0  0
  120.1847  125.0680   83.1826 C   0  0  0  0  0  0  0  0  0  0  0  0
  120.4111  125.6438   81.9716 F   0  0  0  0  0  0  0  0  0  0  0  0
  120.9397  125.7646   84.0714 F   0  0  0  0  0  0  0  0  0  0  0  0
  118.4621  125.1972   83.5562 Cl  0  0  0  0  0  0  0  0  0  0  0  0
  122.6590  122.4500   83.6752 C   0  0  0  0  0  0  0  0  0  0  0  0
  123.5769  122.1045   84.6744 C   0  0  0  0  0  0  0  0  0  0  0  0
  126.9105  120.7505   87.9010 C   0  0  0  0  0  0  0  0  0  0  0  0
  127.7570  119.8660   87.8239 O   0  0  0  0  0  0  0  0  0  0  0  0
  127.1403  122.0730   87.6695 O   0  0  0  0  0  0  0  0  0  0  0  0
  128.4183  122.5720   88.0896 C   0  0  0  0  0  0  0  0  0  0  0  0
  129.4537  122.3493   87.0037 C   0  0  0  0  0  0  0  0  0  0  0  0
  123.9649  121.8213   92.9099 H   0  0  0  0  0  0  0  0  0  0  0  0
  125.0521  121.9556   91.4863 H   0  0  0  0  0  0  0  0  0  0  0  0
  123.4643  122.7957   91.4863 H   0  0  0  0  0  0  0  0  0  0  0  0
  123.1714  119.9224   91.9900 H   0  0  0  0  0  0  0  0  0  0  0  0
  122.4034  120.9613   90.7331 H   0  0  0  0  0  0  0  0  0  0  0  0
  125.3855  119.3896   88.2342 H   0  0  0  0  0  0  0  0  0  0  0  0
  123.8787  120.2828   86.6730 H   0  0  0  0  0  0  0  0  0  0  0  0
  122.2896  123.9009   87.2691 H   0  0  0  0  0  0  0  0  0  0  0  0
  120.6268  124.4866   85.5073 H   0  0  0  0  0  0  0  0  0  0  0  0
  122.7632  122.0328   82.6627 H   0  0  0  0  0  0  0  0  0  0  0  0
  124.4105  121.4275   84.4363 H   0  0  0  0  0  0  0  0  0  0  0  0
  128.3367  123.6491   88.2976 H   0  0  0  0  0  0  0  0  0  0  0  0
  128.7310  122.0353   88.9974 H   0  0  0  0  0  0  0  0  0  0  0  0
  130.4298  122.1393   87.4654 H   0  0  0  0  0  0  0  0  0  0  0  0
  129.1522  121.4955   86.3792 H   0  0  0  0  0  0  0  0  0  0  0  0
  129.5300  123.2516   86.3792 H   0  0  0  0  0  0  0  0  0  0  0  0
  1  2  1  0
  2  3  1  0
  3  4  1  0
  4  5  2  0
  4  6  1  0
  6  7  1  0
  7  8  2  3
  8  9  1  0
  9 10  2  0
 10 11  1  0
 11 12  2  0
 12 13  1  0
 13 14  1  0
 14 15  1  0
 14 16  1  0
 14 17  1  0
 12 18  1  0
 18 19  2  0
  6 20  1  0
 20 21  2  0
 20 22  1  0
 22 23  1  0
 23 24  1  0
 19  9  1  0
  1 25  1  0
  1 26  1  0
  1 27  1  0
  2 28  1  0
  2 29  1  0
  6 30  1  0
  7 31  1  0
 10 32  1  0
 11 33  1  0
 18 34  1  0
 19 35  1  0
 23 36  1  0
 23 37  1  0
 24 38  1  0
 24 39  1  0
 24 40  1  0
M  END
>  <loss>  (25) 
0.7044677734375

>  <score>  (25) 
-7.174105644226074

$$$$
