YUOBDYAVSVCCNI-UHFFFAOYSA-N
     RDKit          3D

 24 24  0  0  0  0  0  0  0  0999 V2000
  128.9428  121.0511   87.3448 N   0  0  0  0  0  0  0  0  0  0  0  0
  128.0697  121.6827   88.0427 C   0  0  0  0  0  0  0  0  0  0  0  0
  128.4388  122.3434   89.1596 N   0  0  0  0  0  0  0  0  0  0  0  0
  126.8081  121.6688   87.5625 N   0  0  0  0  0  0  0  0  0  0  0  0
  125.8783  121.0198   88.1832 C   0  0  0  0  0  0  0  0  0  0  0  0
  126.0274  120.3172   89.3482 N   0  0  0  0  0  0  0  0  0  0  0  0
  124.5689  120.9354   87.7939 N   0  0  0  0  0  0  0  0  0  0  0  0
  123.8332  121.7799   86.9323 C   0  0  0  0  0  0  0  0  0  0  0  0
  124.3025  122.1870   85.6765 C   0  0  0  0  0  0  0  0  0  0  0  0
  123.5264  122.9985   84.8401 C   0  0  0  0  0  0  0  0  0  0  0  0
  122.2586  123.4044   85.2444 C   0  0  0  0  0  0  0  0  0  0  0  0
  121.3089  124.3996   84.2122 Cl  0  0  0  0  0  0  0  0  0  0  0  0
  121.7529  123.0030   86.4746 C   0  0  0  0  0  0  0  0  0  0  0  0
  122.5339  122.1935   87.3036 C   0  0  0  0  0  0  0  0  0  0  0  0
  121.8625  121.7094   88.8271 Cl  0  0  0  0  0  0  0  0  0  0  0  0
  128.6555  120.5484   86.4930 H   0  0  0  0  0  0  0  0  0  0  0  0
  127.7343  122.8485   89.7157 H   0  0  0  0  0  0  0  0  0  0  0  0
  129.4252  122.3427   89.4561 H   0  0  0  0  0  0  0  0  0  0  0  0
  125.2196  119.8320   89.7641 H   0  0  0  0  0  0  0  0  0  0  0  0
  126.9475  120.2736   89.8092 H   0  0  0  0  0  0  0  0  0  0  0  0
  124.0434  120.1409   88.1858 H   0  0  0  0  0  0  0  0  0  0  0  0
  125.2989  121.8631   85.3416 H   0  0  0  0  0  0  0  0  0  0  0  0
  123.9194  123.3154   83.8627 H   0  0  0  0  0  0  0  0  0  0  0  0
  120.7484  123.3191   86.7927 H   0  0  0  0  0  0  0  0  0  0  0  0
  1  2  2  3
  2  3  1  0
  2  4  1  0
  4  5  2  3
  5  6  1  0
  5  7  1  0
  7  8  1  0
  8  9  2  0
  9 10  1  0
 10 11  2  0
 11 12  1  0
 11 13  1  0
 13 14  2  0
 14 15  1  0
 14  8  1  0
  1 16  1  0
  3 17  1  0
  3 18  1  0
  6 19  1  0
  6 20  1  0
  7 21  1  0
  9 22  1  0
 10 23  1  0
 13 24  1  0
M  END
>  <loss>  (1) 
0.5800557732582092

>  <score>  (1) 
2.9238693714141846

$$$$
YUOBDYAVSVCCNI-UHFFFAOYSA-N
     RDKit          3D

 24 24  0  0  0  0  0  0  0  0999 V2000
  128.2363  122.3880   89.0356 N   0  0  0  0  0  0  0  0  0  0  0  0
  127.7280  121.2844   88.6233 C   0  0  0  0  0  0  0  0  0  0  0  0
  128.4008  120.1223   88.7623 N   0  0  0  0  0  0  0  0  0  0  0  0
  126.5290  121.3627   88.0102 N   0  0  0  0  0  0  0  0  0  0  0  0
  125.4857  120.8639   88.5893 C   0  0  0  0  0  0  0  0  0  0  0  0
  125.4634  120.2463   89.8103 N   0  0  0  0  0  0  0  0  0  0  0  0
  124.2106  120.8869   88.0910 N   0  0  0  0  0  0  0  0  0  0  0  0
  123.6535  121.7414   87.1116 C   0  0  0  0  0  0  0  0  0  0  0  0
  124.3020  122.0474   85.9078 C   0  0  0  0  0  0  0  0  0  0  0  0
  123.6983  122.8677   84.9470 C   0  0  0  0  0  0  0  0  0  0  0  0
  122.4251  123.3820   85.1713 C   0  0  0  0  0  0  0  0  0  0  0  0
  121.6871  124.3863   83.9862 Cl  0  0  0  0  0  0  0  0  0  0  0  0
  121.7433  123.0804   86.3438 C   0  0  0  0  0  0  0  0  0  0  0  0
  122.3529  122.2617   87.2979 C   0  0  0  0  0  0  0  0  0  0  0  0
  121.4638  121.9011   88.7418 Cl  0  0  0  0  0  0  0  0  0  0  0  0
  127.7140  123.2688   88.9245 H   0  0  0  0  0  0  0  0  0  0  0  0
  127.9831  119.2422   88.4276 H   0  0  0  0  0  0  0  0  0  0  0  0
  129.3317  120.1156   89.2030 H   0  0  0  0  0  0  0  0  0  0  0  0
  124.5770  119.8808   90.1864 H   0  0  0  0  0  0  0  0  0  0  0  0
  126.3331  120.1470   90.3531 H   0  0  0  0  0  0  0  0  0  0  0  0
  123.5681  120.1843   88.4839 H   0  0  0  0  0  0  0  0  0  0  0  0
  125.3034  121.6357   85.7140 H   0  0  0  0  0  0  0  0  0  0  0  0
  124.2309  123.1056   84.0144 H   0  0  0  0  0  0  0  0  0  0  0  0
  120.7343  123.4820   86.5190 H   0  0  0  0  0  0  0  0  0  0  0  0
  1  2  2  3
  2  3  1  0
  2  4  1  0
  4  5  2  3
  5  6  1  0
  5  7  1  0
  7  8  1  0
  8  9  2  0
  9 10  1  0
 10 11  2  0
 11 12  1  0
 11 13  1  0
 13 14  2  0
 14 15  1  0
 14  8  1  0
  1 16  1  0
  3 17  1  0
  3 18  1  0
  6 19  1  0
  6 20  1  0
  7 21  1  0
  9 22  1  0
 10 23  1  0
 13 24  1  0
M  END
>  <loss>  (2) 
0.5818647742271423

>  <score>  (2) 
2.819113254547119

$$$$
YUOBDYAVSVCCNI-UHFFFAOYSA-N
     RDKit          3D

 24 24  0  0  0  0  0  0  0  0999 V2000
  128.4518  122.0600   88.6114 N   0  0  0  0  0  0  0  0  0  0  0  0
  127.5862  121.1505   88.8752 C   0  0  0  0  0  0  0  0  0  0  0  0
  127.8393  120.2093   89.8093 N   0  0  0  0  0  0  0  0  0  0  0  0
  126.4540  121.1623   88.1418 N   0  0  0  0  0  0  0  0  0  0  0  0
  125.3317  120.8459   88.7011 C   0  0  0  0  0  0  0  0  0  0  0  0
  125.1592  120.4928   90.0119 N   0  0  0  0  0  0  0  0  0  0  0  0
  124.1099  120.8309   88.0830 N   0  0  0  0  0  0  0  0  0  0  0  0
  123.5976  121.7130   87.1036 C   0  0  0  0  0  0  0  0  0  0  0  0
  124.2888  122.0315   85.9271 C   0  0  0  0  0  0  0  0  0  0  0  0
  123.7289  122.8797   84.9641 C   0  0  0  0  0  0  0  0  0  0  0  0
  122.4573  123.4101   85.1581 C   0  0  0  0  0  0  0  0  0  0  0  0
  121.7731  124.4487   83.9703 Cl  0  0  0  0  0  0  0  0  0  0  0  0
  121.7339  123.0971   86.3024 C   0  0  0  0  0  0  0  0  0  0  0  0
  122.3000  122.2505   87.2590 C   0  0  0  0  0  0  0  0  0  0  0  0
  121.3598  121.8767   88.6667 Cl  0  0  0  0  0  0  0  0  0  0  0  0
  128.2480  122.7732   87.8967 H   0  0  0  0  0  0  0  0  0  0  0  0
  127.1371  119.4839   90.0129 H   0  0  0  0  0  0  0  0  0  0  0  0
  128.7346  120.2167   90.3184 H   0  0  0  0  0  0  0  0  0  0  0  0
  124.2198  120.2571   90.3625 H   0  0  0  0  0  0  0  0  0  0  0  0
  125.9688  120.4626   90.6479 H   0  0  0  0  0  0  0  0  0  0  0  0
  123.4761  120.0720   88.3715 H   0  0  0  0  0  0  0  0  0  0  0  0
  125.2894  121.6074   85.7569 H   0  0  0  0  0  0  0  0  0  0  0  0
  124.2945  123.1268   84.0536 H   0  0  0  0  0  0  0  0  0  0  0  0
  120.7262  123.5115   86.4536 H   0  0  0  0  0  0  0  0  0  0  0  0
  1  2  2  3
  2  3  1  0
  2  4  1  0
  4  5  2  3
  5  6  1  0
  5  7  1  0
  7  8  1  0
  8  9  2  0
  9 10  1  0
 10 11  2  0
 11 12  1  0
 11 13  1  0
 13 14  2  0
 14 15  1  0
 14  8  1  0
  1 16  1  0
  3 17  1  0
  3 18  1  0
  6 19  1  0
  6 20  1  0
  7 21  1  0
  9 22  1  0
 10 23  1  0
 13 24  1  0
M  END
>  <loss>  (3) 
0.5797839164733887

>  <score>  (3) 
2.7671916484832764

$$$$
YUOBDYAVSVCCNI-UHFFFAOYSA-N
     RDKit          3D

 24 24  0  0  0  0  0  0  0  0999 V2000
  126.8223  121.7794   90.8885 N   0  0  0  0  0  0  0  0  0  0  0  0
  126.7857  121.0014   89.8690 C   0  0  0  0  0  0  0  0  0  0  0  0
  127.7604  120.0904   89.6628 N   0  0  0  0  0  0  0  0  0  0  0  0
  125.7629  121.1807   89.0079 N   0  0  0  0  0  0  0  0  0  0  0  0
  124.6096  120.6597   89.2745 C   0  0  0  0  0  0  0  0  0  0  0  0
  124.2990  119.9219   90.3843 N   0  0  0  0  0  0  0  0  0  0  0  0
  123.4855  120.7747   88.5010 N   0  0  0  0  0  0  0  0  0  0  0  0
  123.2507  121.6220   87.3935 C   0  0  0  0  0  0  0  0  0  0  0  0
  124.1833  121.8093   86.3646 C   0  0  0  0  0  0  0  0  0  0  0  0
  123.8958  122.6274   85.2654 C   0  0  0  0  0  0  0  0  0  0  0  0
  122.6597  123.2591   85.1718 C   0  0  0  0  0  0  0  0  0  0  0  0
  122.3108  124.2602   83.8176 Cl  0  0  0  0  0  0  0  0  0  0  0  0
  121.7023  123.0774   86.1623 C   0  0  0  0  0  0  0  0  0  0  0  0
  121.9972  122.2600   87.2564 C   0  0  0  0  0  0  0  0  0  0  0  0
  120.7714  122.0511   88.4644 Cl  0  0  0  0  0  0  0  0  0  0  0  0
  126.0733  122.4708   91.0358 H   0  0  0  0  0  0  0  0  0  0  0  0
  127.7208  119.4709   88.8409 H   0  0  0  0  0  0  0  0  0  0  0  0
  128.5437  120.0148   90.3274 H   0  0  0  0  0  0  0  0  0  0  0  0
  123.3465  119.5489   90.5048 H   0  0  0  0  0  0  0  0  0  0  0  0
  125.0177  119.7395   91.0992 H   0  0  0  0  0  0  0  0  0  0  0  0
  122.7025  120.1586   88.7622 H   0  0  0  0  0  0  0  0  0  0  0  0
  125.1589  121.3044   86.4216 H   0  0  0  0  0  0  0  0  0  0  0  0
  124.6477  122.7709   84.4753 H   0  0  0  0  0  0  0  0  0  0  0  0
  120.7227  123.5718   86.0859 H   0  0  0  0  0  0  0  0  0  0  0  0
  1  2  2  3
  2  3  1  0
  2  4  1  0
  4  5  2  3
  5  6  1  0
  5  7  1  0
  7  8  1  0
  8  9  2  0
  9 10  1  0
 10 11  2  0
 11 12  1  0
 11 13  1  0
 13 14  2  0
 14 15  1  0
 14  8  1  0
  1 16  1  0
  3 17  1  0
  3 18  1  0
  6 19  1  0
  6 20  1  0
  7 21  1  0
  9 22  1  0
 10 23  1  0
 13 24  1  0
M  END
>  <loss>  (4) 
0.626406729221344

>  <score>  (4) 
2.932292938232422

$$$$
YUOBDYAVSVCCNI-UHFFFAOYSA-N
     RDKit          3D

 24 24  0  0  0  0  0  0  0  0999 V2000
  127.3983  119.8684   89.9733 N   0  0  0  0  0  0  0  0  0  0  0  0
  126.7041  120.9480   90.0015 C   0  0  0  0  0  0  0  0  0  0  0  0
  126.9886  121.9176   90.8954 N   0  0  0  0  0  0  0  0  0  0  0  0
  125.7314  121.0485   89.0707 N   0  0  0  0  0  0  0  0  0  0  0  0
  124.5196  120.6948   89.3491 C   0  0  0  0  0  0  0  0  0  0  0  0
  124.0768  120.2178   90.5531 N   0  0  0  0  0  0  0  0  0  0  0  0
  123.4550  120.7527   88.4909 N   0  0  0  0  0  0  0  0  0  0  0  0
  123.2387  121.6077   87.3868 C   0  0  0  0  0  0  0  0  0  0  0  0
  124.1849  121.7999   86.3716 C   0  0  0  0  0  0  0  0  0  0  0  0
  123.9165  122.6316   85.2776 C   0  0  0  0  0  0  0  0  0  0  0  0
  122.6868  123.2743   85.1765 C   0  0  0  0  0  0  0  0  0  0  0  0
  122.3618  124.2932   83.8297 Cl  0  0  0  0  0  0  0  0  0  0  0  0
  121.7171  123.0908   86.1545 C   0  0  0  0  0  0  0  0  0  0  0  0
  121.9930  122.2596   87.2433 C   0  0  0  0  0  0  0  0  0  0  0  0
  120.7532  122.0521   88.4374 Cl  0  0  0  0  0  0  0  0  0  0  0  0
  127.1767  119.1314   89.2888 H   0  0  0  0  0  0  0  0  0  0  0  0
  126.4283  122.7818   90.9136 H   0  0  0  0  0  0  0  0  0  0  0  0
  127.7659  121.7937   91.5597 H   0  0  0  0  0  0  0  0  0  0  0  0
  123.0861  119.9626   90.6731 H   0  0  0  0  0  0  0  0  0  0  0  0
  124.7342  120.1142   91.3393 H   0  0  0  0  0  0  0  0  0  0  0  0
  122.7023  120.0747   88.6768 H   0  0  0  0  0  0  0  0  0  0  0  0
  125.1565  121.2881   86.4352 H   0  0  0  0  0  0  0  0  0  0  0  0
  124.6784  122.7768   84.4976 H   0  0  0  0  0  0  0  0  0  0  0  0
  120.7426  123.5944   86.0726 H   0  0  0  0  0  0  0  0  0  0  0  0
  1  2  2  3
  2  3  1  0
  2  4  1  0
  4  5  2  3
  5  6  1  0
  5  7  1  0
  7  8  1  0
  8  9  2  0
  9 10  1  0
 10 11  2  0
 11 12  1  0
 11 13  1  0
 13 14  2  0
 14 15  1  0
 14  8  1  0
  1 16  1  0
  3 17  1  0
  3 18  1  0
  6 19  1  0
  6 20  1  0
  7 21  1  0
  9 22  1  0
 10 23  1  0
 13 24  1  0
M  END
>  <loss>  (5) 
0.6245550513267517

>  <score>  (5) 
2.8928310871124268

$$$$
YUOBDYAVSVCCNI-UHFFFAOYSA-N
     RDKit          3D

 24 24  0  0  0  0  0  0  0  0999 V2000
  128.7924  123.6297   86.0546 N   0  0  0  0  0  0  0  0  0  0  0  0
  128.1266  123.1074   85.0903 C   0  0  0  0  0  0  0  0  0  0  0  0
  128.7027  122.9047   83.8864 N   0  0  0  0  0  0  0  0  0  0  0  0
  126.8297  122.8267   85.3332 N   0  0  0  0  0  0  0  0  0  0  0  0
  126.5291  121.8869   86.1693 C   0  0  0  0  0  0  0  0  0  0  0  0
  127.4201  121.1193   86.8689 N   0  0  0  0  0  0  0  0  0  0  0  0
  125.2608  121.5088   86.5205 N   0  0  0  0  0  0  0  0  0  0  0  0
  124.0291  122.1303   86.2100 C   0  0  0  0  0  0  0  0  0  0  0  0
  123.7580  122.7057   84.9615 C   0  0  0  0  0  0  0  0  0  0  0  0
  122.5108  123.2773   84.6818 C   0  0  0  0  0  0  0  0  0  0  0  0
  121.5079  123.2663   85.6460 C   0  0  0  0  0  0  0  0  0  0  0  0
  119.9767  123.9669   85.2958 Cl  0  0  0  0  0  0  0  0  0  0  0  0
  121.7341  122.6837   86.8870 C   0  0  0  0  0  0  0  0  0  0  0  0
  122.9817  122.1160   87.1585 C   0  0  0  0  0  0  0  0  0  0  0  0
  123.2191  121.3899   88.7147 Cl  0  0  0  0  0  0  0  0  0  0  0  0
  128.3426  123.7797   86.9690 H   0  0  0  0  0  0  0  0  0  0  0  0
  128.1587  122.4846   83.1192 H   0  0  0  0  0  0  0  0  0  0  0  0
  129.6863  123.1701   83.7349 H   0  0  0  0  0  0  0  0  0  0  0  0
  127.0786  120.3926   87.5139 H   0  0  0  0  0  0  0  0  0  0  0  0
  128.4324  121.2684   86.7505 H   0  0  0  0  0  0  0  0  0  0  0  0
  125.1947  120.6529   87.0897 H   0  0  0  0  0  0  0  0  0  0  0  0
  124.5392  122.7085   84.1870 H   0  0  0  0  0  0  0  0  0  0  0  0
  122.3239  123.7353   83.6993 H   0  0  0  0  0  0  0  0  0  0  0  0
  120.9396  122.6694   87.6475 H   0  0  0  0  0  0  0  0  0  0  0  0
  1  2  2  3
  2  3  1  0
  2  4  1  0
  4  5  2  3
  5  6  1  0
  5  7  1  0
  7  8  1  0
  8  9  2  0
  9 10  1  0
 10 11  2  0
 11 12  1  0
 11 13  1  0
 13 14  2  0
 14 15  1  0
 14  8  1  0
  1 16  1  0
  3 17  1  0
  3 18  1  0
  6 19  1  0
  6 20  1  0
  7 21  1  0
  9 22  1  0
 10 23  1  0
 13 24  1  0
M  END
>  <loss>  (6) 
0.5721169710159302

>  <score>  (6) 
2.601783514022827

$$$$
YUOBDYAVSVCCNI-UHFFFAOYSA-N
     RDKit          3D

 24 24  0  0  0  0  0  0  0  0999 V2000
  125.5047  121.6912   91.5213 N   0  0  0  0  0  0  0  0  0  0  0  0
  125.9484  121.0037   90.5290 C   0  0  0  0  0  0  0  0  0  0  0  0
  127.1944  121.2254   90.0638 N   0  0  0  0  0  0  0  0  0  0  0  0
  125.2153  119.9841   90.0248 N   0  0  0  0  0  0  0  0  0  0  0  0
  124.1064  120.2048   89.3957 C   0  0  0  0  0  0  0  0  0  0  0  0
  123.3830  119.1044   89.0394 N   0  0  0  0  0  0  0  0  0  0  0  0
  123.4569  121.3521   89.0412 N   0  0  0  0  0  0  0  0  0  0  0  0
  123.2595  121.8579   87.7306 C   0  0  0  0  0  0  0  0  0  0  0  0
  124.2877  121.9247   86.7815 C   0  0  0  0  0  0  0  0  0  0  0  0
  124.0637  122.4662   85.5110 C   0  0  0  0  0  0  0  0  0  0  0  0
  122.8029  122.9487   85.1732 C   0  0  0  0  0  0  0  0  0  0  0  0
  122.5318  123.6106   83.6088 Cl  0  0  0  0  0  0  0  0  0  0  0  0
  121.7592  122.8910   86.0896 C   0  0  0  0  0  0  0  0  0  0  0  0
  121.9900  122.3497   87.3566 C   0  0  0  0  0  0  0  0  0  0  0  0
  120.6575  122.2765   88.4621 Cl  0  0  0  0  0  0  0  0  0  0  0  0
  124.5533  121.5242   91.8790 H   0  0  0  0  0  0  0  0  0  0  0  0
  127.5527  120.6766   89.2693 H   0  0  0  0  0  0  0  0  0  0  0  0
  127.7878  121.9436   90.5030 H   0  0  0  0  0  0  0  0  0  0  0  0
  122.4911  119.2152   88.5363 H   0  0  0  0  0  0  0  0  0  0  0  0
  123.7287  118.1628   89.2734 H   0  0  0  0  0  0  0  0  0  0  0  0
  123.0666  121.9133   89.8116 H   0  0  0  0  0  0  0  0  0  0  0  0
  125.2875  121.5453   87.0393 H   0  0  0  0  0  0  0  0  0  0  0  0
  124.8839  122.5105   84.7793 H   0  0  0  0  0  0  0  0  0  0  0  0
  120.7615  123.2677   85.8197 H   0  0  0  0  0  0  0  0  0  0  0  0
  1  2  2  3
  2  3  1  0
  2  4  1  0
  4  5  2  3
  5  6  1  0
  5  7  1  0
  7  8  1  0
  8  9  2  0
  9 10  1  0
 10 11  2  0
 11 12  1  0
 11 13  1  0
 13 14  2  0
 14 15  1  0
 14  8  1  0
  1 16  1  0
  3 17  1  0
  3 18  1  0
  6 19  1  0
  6 20  1  0
  7 21  1  0
  9 22  1  0
 10 23  1  0
 13 24  1  0
M  END
>  <loss>  (7) 
0.6269975304603577

>  <score>  (7) 
2.8336174488067627

$$$$
YUOBDYAVSVCCNI-UHFFFAOYSA-N
     RDKit          3D

 24 24  0  0  0  0  0  0  0  0999 V2000
  126.6935  121.4924   90.7544 N   0  0  0  0  0  0  0  0  0  0  0  0
  126.8460  120.8509   89.6502 C   0  0  0  0  0  0  0  0  0  0  0  0
  127.9665  121.0278   88.9214 N   0  0  0  0  0  0  0  0  0  0  0  0
  125.9419  119.9166   89.2748 N   0  0  0  0  0  0  0  0  0  0  0  0
  124.7594  120.2538   88.8724 C   0  0  0  0  0  0  0  0  0  0  0  0
  123.8851  119.2329   88.6388 N   0  0  0  0  0  0  0  0  0  0  0  0
  124.1618  121.4645   88.6701 N   0  0  0  0  0  0  0  0  0  0  0  0
  123.6372  121.9712   87.4533 C   0  0  0  0  0  0  0  0  0  0  0  0
  124.4147  122.1224   86.2978 C   0  0  0  0  0  0  0  0  0  0  0  0
  123.8711  122.6623   85.1271 C   0  0  0  0  0  0  0  0  0  0  0  0
  122.5374  123.0585   85.0981 C   0  0  0  0  0  0  0  0  0  0  0  0
  121.8731  123.7189   83.6554 Cl  0  0  0  0  0  0  0  0  0  0  0  0
  121.7368  122.9157   86.2255 C   0  0  0  0  0  0  0  0  0  0  0  0
  122.2861  122.3764   87.3913 C   0  0  0  0  0  0  0  0  0  0  0  0
  121.2492  122.1954   88.7679 Cl  0  0  0  0  0  0  0  0  0  0  0  0
  125.8387  121.3594   91.3135 H   0  0  0  0  0  0  0  0  0  0  0  0
  128.0917  120.5156   88.0367 H   0  0  0  0  0  0  0  0  0  0  0  0
  128.6973  121.6753   89.2495 H   0  0  0  0  0  0  0  0  0  0  0  0
  122.9284  119.4376   88.3167 H   0  0  0  0  0  0  0  0  0  0  0  0
  124.1817  118.2573   88.7847 H   0  0  0  0  0  0  0  0  0  0  0  0
  124.0829  122.0788   89.4931 H   0  0  0  0  0  0  0  0  0  0  0  0
  125.4698  121.8115   86.3112 H   0  0  0  0  0  0  0  0  0  0  0  0
  124.4978  122.7736   84.2300 H   0  0  0  0  0  0  0  0  0  0  0  0
  120.6812  123.2241   86.1999 H   0  0  0  0  0  0  0  0  0  0  0  0
  1  2  2  3
  2  3  1  0
  2  4  1  0
  4  5  2  3
  5  6  1  0
  5  7  1  0
  7  8  1  0
  8  9  2  0
  9 10  1  0
 10 11  2  0
 11 12  1  0
 11 13  1  0
 13 14  2  0
 14 15  1  0
 14  8  1  0
  1 16  1  0
  3 17  1  0
  3 18  1  0
  6 19  1  0
  6 20  1  0
  7 21  1  0
  9 22  1  0
 10 23  1  0
 13 24  1  0
M  END
>  <loss>  (8) 
0.629535436630249

>  <score>  (8) 
2.6507279872894287

$$$$
YUOBDYAVSVCCNI-UHFFFAOYSA-N
     RDKit          3D

 24 24  0  0  0  0  0  0  0  0999 V2000
  126.7697  121.5204   90.6745 N   0  0  0  0  0  0  0  0  0  0  0  0
  126.9084  120.9025   89.5550 C   0  0  0  0  0  0  0  0  0  0  0  0
  128.0040  121.1208   88.8001 N   0  0  0  0  0  0  0  0  0  0  0  0
  126.0181  119.9521   89.1868 N   0  0  0  0  0  0  0  0  0  0  0  0
  124.8222  120.2673   88.8067 C   0  0  0  0  0  0  0  0  0  0  0  0
  123.9660  119.2298   88.5790 N   0  0  0  0  0  0  0  0  0  0  0  0
  124.1958  121.4665   88.6242 N   0  0  0  0  0  0  0  0  0  0  0  0
  123.6551  121.9785   87.4167 C   0  0  0  0  0  0  0  0  0  0  0  0
  124.4157  122.1297   86.2501 C   0  0  0  0  0  0  0  0  0  0  0  0
  123.8568  122.6749   85.0892 C   0  0  0  0  0  0  0  0  0  0  0  0
  122.5244  123.0766   85.0813 C   0  0  0  0  0  0  0  0  0  0  0  0
  121.8411  123.7435   83.6505 Cl  0  0  0  0  0  0  0  0  0  0  0  0
  121.7402  122.9340   86.2202 C   0  0  0  0  0  0  0  0  0  0  0  0
  122.3049  122.3895   87.3762 C   0  0  0  0  0  0  0  0  0  0  0  0
  121.2881  122.2090   88.7678 Cl  0  0  0  0  0  0  0  0  0  0  0  0
  125.9339  121.3558   91.2535 H   0  0  0  0  0  0  0  0  0  0  0  0
  128.1180  120.6275   87.9031 H   0  0  0  0  0  0  0  0  0  0  0  0
  128.7269  121.7809   89.1204 H   0  0  0  0  0  0  0  0  0  0  0  0
  123.0000  119.4166   88.2743 H   0  0  0  0  0  0  0  0  0  0  0  0
  124.2856  118.2597   88.7119 H   0  0  0  0  0  0  0  0  0  0  0  0
  124.1058  122.0667   89.4564 H   0  0  0  0  0  0  0  0  0  0  0  0
  125.4696  121.8145   86.2467 H   0  0  0  0  0  0  0  0  0  0  0  0
  124.4703  122.7861   84.1829 H   0  0  0  0  0  0  0  0  0  0  0  0
  120.6857  123.2468   86.2113 H   0  0  0  0  0  0  0  0  0  0  0  0
  1  2  2  3
  2  3  1  0
  2  4  1  0
  4  5  2  3
  5  6  1  0
  5  7  1  0
  7  8  1  0
  8  9  2  0
  9 10  1  0
 10 11  2  0
 11 12  1  0
 11 13  1  0
 13 14  2  0
 14 15  1  0
 14  8  1  0
  1 16  1  0
  3 17  1  0
  3 18  1  0
  6 19  1  0
  6 20  1  0
  7 21  1  0
  9 22  1  0
 10 23  1  0
 13 24  1  0
M  END
>  <loss>  (9) 
0.6309666037559509

>  <score>  (9) 
2.6073060035705566

$$$$
YUOBDYAVSVCCNI-UHFFFAOYSA-N
     RDKit          3D

 24 24  0  0  0  0  0  0  0  0999 V2000
  126.6672  121.5116   90.7257 N   0  0  0  0  0  0  0  0  0  0  0  0
  126.8441  120.8653   89.6279 C   0  0  0  0  0  0  0  0  0  0  0  0
  127.9791  121.0415   88.9218 N   0  0  0  0  0  0  0  0  0  0  0  0
  125.9500  119.9271   89.2383 N   0  0  0  0  0  0  0  0  0  0  0  0
  124.7657  120.2580   88.8358 C   0  0  0  0  0  0  0  0  0  0  0  0
  123.9020  119.2318   88.5870 N   0  0  0  0  0  0  0  0  0  0  0  0
  124.1574  121.4654   88.6460 N   0  0  0  0  0  0  0  0  0  0  0  0
  123.6317  121.9815   87.4336 C   0  0  0  0  0  0  0  0  0  0  0  0
  124.4061  122.1343   86.2763 C   0  0  0  0  0  0  0  0  0  0  0  0
  123.8617  122.6835   85.1103 C   0  0  0  0  0  0  0  0  0  0  0  0
  122.5302  123.0875   85.0880 C   0  0  0  0  0  0  0  0  0  0  0  0
  121.8648  123.7592   83.6510 Cl  0  0  0  0  0  0  0  0  0  0  0  0
  121.7326  122.9433   86.2173 C   0  0  0  0  0  0  0  0  0  0  0  0
  122.2827  122.3948   87.3784 C   0  0  0  0  0  0  0  0  0  0  0  0
  121.2495  122.2125   88.7575 Cl  0  0  0  0  0  0  0  0  0  0  0  0
  125.8012  121.3791   91.2675 H   0  0  0  0  0  0  0  0  0  0  0  0
  128.1238  120.5255   88.0422 H   0  0  0  0  0  0  0  0  0  0  0  0
  128.7014  121.6922   89.2619 H   0  0  0  0  0  0  0  0  0  0  0  0
  122.9445  119.4314   88.2640 H   0  0  0  0  0  0  0  0  0  0  0  0
  124.2073  118.2574   88.7221 H   0  0  0  0  0  0  0  0  0  0  0  0
  124.0705  122.0692   89.4759 H   0  0  0  0  0  0  0  0  0  0  0  0
  125.4595  121.8173   86.2844 H   0  0  0  0  0  0  0  0  0  0  0  0
  124.4859  122.7959   84.2116 H   0  0  0  0  0  0  0  0  0  0  0  0
  120.6787  123.2579   86.1969 H   0  0  0  0  0  0  0  0  0  0  0  0
  1  2  2  3
  2  3  1  0
  2  4  1  0
  4  5  2  3
  5  6  1  0
  5  7  1  0
  7  8  1  0
  8  9  2  0
  9 10  1  0
 10 11  2  0
 11 12  1  0
 11 13  1  0
 13 14  2  0
 14 15  1  0
 14  8  1  0
  1 16  1  0
  3 17  1  0
  3 18  1  0
  6 19  1  0
  6 20  1  0
  7 21  1  0
  9 22  1  0
 10 23  1  0
 13 24  1  0
M  END
>  <loss>  (10) 
0.6402783393859863

>  <score>  (10) 
2.6259140968322754

$$$$
YUOBDYAVSVCCNI-UHFFFAOYSA-N
     RDKit          3D

 24 24  0  0  0  0  0  0  0  0999 V2000
  129.1368  121.2645   86.9223 N   0  0  0  0  0  0  0  0  0  0  0  0
  128.4253  122.3128   86.7152 C   0  0  0  0  0  0  0  0  0  0  0  0
  128.9978  123.5345   86.7095 N   0  0  0  0  0  0  0  0  0  0  0  0
  127.1153  122.0978   86.4696 N   0  0  0  0  0  0  0  0  0  0  0  0
  126.3919  121.4335   87.3102 C   0  0  0  0  0  0  0  0  0  0  0  0
  126.8191  120.9056   88.4985 N   0  0  0  0  0  0  0  0  0  0  0  0
  125.0592  121.1553   87.1696 N   0  0  0  0  0  0  0  0  0  0  0  0
  124.0418  121.9245   86.5614 C   0  0  0  0  0  0  0  0  0  0  0  0
  124.1525  122.4536   85.2689 C   0  0  0  0  0  0  0  0  0  0  0  0
  123.1062  123.1832   84.6914 C   0  0  0  0  0  0  0  0  0  0  0  0
  121.9238  123.3825   85.3969 C   0  0  0  0  0  0  0  0  0  0  0  0
  120.6411  124.2777   84.6821 Cl  0  0  0  0  0  0  0  0  0  0  0  0
  121.7713  122.8549   86.6732 C   0  0  0  0  0  0  0  0  0  0  0  0
  122.8204  122.1284   87.2425 C   0  0  0  0  0  0  0  0  0  0  0  0
  122.5864  121.4813   88.8338 Cl  0  0  0  0  0  0  0  0  0  0  0  0
  128.6946  120.3343   86.9255 H   0  0  0  0  0  0  0  0  0  0  0  0
  128.4222  124.3722   86.5428 H   0  0  0  0  0  0  0  0  0  0  0  0
  130.0104  123.6294   86.8719 H   0  0  0  0  0  0  0  0  0  0  0  0
  126.1603  120.3904   89.0997 H   0  0  0  0  0  0  0  0  0  0  0  0
  127.7995  121.0236   88.7916 H   0  0  0  0  0  0  0  0  0  0  0  0
  124.7536  120.2544   87.5644 H   0  0  0  0  0  0  0  0  0  0  0  0
  125.0785  122.2930   84.6972 H   0  0  0  0  0  0  0  0  0  0  0  0
  123.2191  123.5991   83.6793 H   0  0  0  0  0  0  0  0  0  0  0  0
  120.8347  123.0074   87.2295 H   0  0  0  0  0  0  0  0  0  0  0  0
  1  2  2  3
  2  3  1  0
  2  4  1  0
  4  5  2  3
  5  6  1  0
  5  7  1  0
  7  8  1  0
  8  9  2  0
  9 10  1  0
 10 11  2  0
 11 12  1  0
 11 13  1  0
 13 14  2  0
 14 15  1  0
 14  8  1  0
  1 16  1  0
  3 17  1  0
  3 18  1  0
  6 19  1  0
  6 20  1  0
  7 21  1  0
  9 22  1  0
 10 23  1  0
 13 24  1  0
M  END
>  <loss>  (11) 
0.5752540230751038

>  <score>  (11) 
1.6340388059616089

$$$$
YUOBDYAVSVCCNI-UHFFFAOYSA-N
     RDKit          3D

 24 24  0  0  0  0  0  0  0  0999 V2000
  128.7274  123.0912   84.1956 N   0  0  0  0  0  0  0  0  0  0  0  0
  128.2462  122.9832   85.3809 C   0  0  0  0  0  0  0  0  0  0  0  0
  129.0226  123.2302   86.4563 N   0  0  0  0  0  0  0  0  0  0  0  0
  126.9385  122.6572   85.4595 N   0  0  0  0  0  0  0  0  0  0  0  0
  126.5243  121.8230   86.3560 C   0  0  0  0  0  0  0  0  0  0  0  0
  127.2988  121.2078   87.3020 N   0  0  0  0  0  0  0  0  0  0  0  0
  125.2283  121.4197   86.5315 N   0  0  0  0  0  0  0  0  0  0  0  0
  124.0281  122.0954   86.2156 C   0  0  0  0  0  0  0  0  0  0  0  0
  123.8018  122.7143   84.9792 C   0  0  0  0  0  0  0  0  0  0  0  0
  122.5844  123.3453   84.6957 C   0  0  0  0  0  0  0  0  0  0  0  0
  121.5669  123.3538   85.6445 C   0  0  0  0  0  0  0  0  0  0  0  0
  120.0730  124.1288   85.2904 Cl  0  0  0  0  0  0  0  0  0  0  0  0
  121.7491  122.7325   86.8738 C   0  0  0  0  0  0  0  0  0  0  0  0
  122.9670  122.1054   87.1490 C   0  0  0  0  0  0  0  0  0  0  0  0
  123.1504  121.3359   88.6918 Cl  0  0  0  0  0  0  0  0  0  0  0  0
  128.1302  122.9014   83.3781 H   0  0  0  0  0  0  0  0  0  0  0  0
  128.6314  123.1420   87.4051 H   0  0  0  0  0  0  0  0  0  0  0  0
  130.0064  123.5070   86.3286 H   0  0  0  0  0  0  0  0  0  0  0  0
  126.8698  120.5562   87.9745 H   0  0  0  0  0  0  0  0  0  0  0  0
  128.3106  121.3964   87.3414 H   0  0  0  0  0  0  0  0  0  0  0  0
  125.1106  120.4884   86.9555 H   0  0  0  0  0  0  0  0  0  0  0  0
  124.5950  122.7042   84.2172 H   0  0  0  0  0  0  0  0  0  0  0  0
  122.4324  123.8346   83.7223 H   0  0  0  0  0  0  0  0  0  0  0  0
  120.9431  122.7342   87.6224 H   0  0  0  0  0  0  0  0  0  0  0  0
  1  2  2  3
  2  3  1  0
  2  4  1  0
  4  5  2  3
  5  6  1  0
  5  7  1  0
  7  8  1  0
  8  9  2  0
  9 10  1  0
 10 11  2  0
 11 12  1  0
 11 13  1  0
 13 14  2  0
 14 15  1  0
 14  8  1  0
  1 16  1  0
  3 17  1  0
  3 18  1  0
  6 19  1  0
  6 20  1  0
  7 21  1  0
  9 22  1  0
 10 23  1  0
 13 24  1  0
M  END
>  <loss>  (12) 
0.575533390045166

>  <score>  (12) 
1.583472728729248

$$$$
YUOBDYAVSVCCNI-UHFFFAOYSA-N
     RDKit          3D

 24 24  0  0  0  0  0  0  0  0999 V2000
  121.5270  123.5502   92.3826 N   0  0  0  0  0  0  0  0  0  0  0  0
  120.6677  123.0528   91.5646 C   0  0  0  0  0  0  0  0  0  0  0  0
  119.3835  122.9017   91.9338 N   0  0  0  0  0  0  0  0  0  0  0  0
  121.0674  122.6713   90.3313 N   0  0  0  0  0  0  0  0  0  0  0  0
  121.6948  121.5552   90.1521 C   0  0  0  0  0  0  0  0  0  0  0  0
  122.0610  120.6779   91.1363 N   0  0  0  0  0  0  0  0  0  0  0  0
  122.1291  121.0664   88.9501 N   0  0  0  0  0  0  0  0  0  0  0  0
  122.3462  121.7462   87.7296 C   0  0  0  0  0  0  0  0  0  0  0  0
  121.3099  122.2882   86.9582 C   0  0  0  0  0  0  0  0  0  0  0  0
  121.5691  122.9196   85.7354 C   0  0  0  0  0  0  0  0  0  0  0  0
  122.8728  123.0040   85.2573 C   0  0  0  0  0  0  0  0  0  0  0  0
  123.1845  123.7774   83.7532 Cl  0  0  0  0  0  0  0  0  0  0  0  0
  123.9230  122.4586   85.9851 C   0  0  0  0  0  0  0  0  0  0  0  0
  123.6560  121.8312   87.2048 C   0  0  0  0  0  0  0  0  0  0  0  0
  124.9941  121.1555   88.0765 Cl  0  0  0  0  0  0  0  0  0  0  0  0
  122.5088  123.6629   92.0925 H   0  0  0  0  0  0  0  0  0  0  0  0
  118.7013  122.5027   91.2733 H   0  0  0  0  0  0  0  0  0  0  0  0
  119.0821  123.1849   92.8771 H   0  0  0  0  0  0  0  0  0  0  0  0
  122.5603  119.8104   90.8932 H   0  0  0  0  0  0  0  0  0  0  0  0
  121.8374  120.8849   92.1201 H   0  0  0  0  0  0  0  0  0  0  0  0
  122.3267  120.0557   88.9319 H   0  0  0  0  0  0  0  0  0  0  0  0
  120.2735  122.2165   87.3198 H   0  0  0  0  0  0  0  0  0  0  0  0
  120.7411  123.3493   85.1525 H   0  0  0  0  0  0  0  0  0  0  0  0
  124.9535  122.5200   85.6054 H   0  0  0  0  0  0  0  0  0  0  0  0
  1  2  2  3
  2  3  1  0
  2  4  1  0
  4  5  2  3
  5  6  1  0
  5  7  1  0
  7  8  1  0
  8  9  2  0
  9 10  1  0
 10 11  2  0
 11 12  1  0
 11 13  1  0
 13 14  2  0
 14 15  1  0
 14  8  1  0
  1 16  1  0
  3 17  1  0
  3 18  1  0
  6 19  1  0
  6 20  1  0
  7 21  1  0
  9 22  1  0
 10 23  1  0
 13 24  1  0
M  END
>  <loss>  (13) 
0.6498950719833374

>  <score>  (13) 
1.8314435482025146

$$$$
YUOBDYAVSVCCNI-UHFFFAOYSA-N
     RDKit          3D

 24 24  0  0  0  0  0  0  0  0999 V2000
  120.3054  123.9629   91.6501 N   0  0  0  0  0  0  0  0  0  0  0  0
  120.0592  122.8048   91.1470 C   0  0  0  0  0  0  0  0  0  0  0  0
  119.2512  121.9415   91.7872 N   0  0  0  0  0  0  0  0  0  0  0  0
  120.6290  122.4557   89.9723 N   0  0  0  0  0  0  0  0  0  0  0  0
  121.5344  121.5343   89.9211 C   0  0  0  0  0  0  0  0  0  0  0  0
  122.0454  120.8562   90.9942 N   0  0  0  0  0  0  0  0  0  0  0  0
  122.1630  121.0933   88.7886 N   0  0  0  0  0  0  0  0  0  0  0  0
  122.4298  121.7822   87.5832 C   0  0  0  0  0  0  0  0  0  0  0  0
  121.4243  122.3048   86.7593 C   0  0  0  0  0  0  0  0  0  0  0  0
  121.7342  122.9463   85.5537 C   0  0  0  0  0  0  0  0  0  0  0  0
  123.0593  123.0605   85.1457 C   0  0  0  0  0  0  0  0  0  0  0  0
  123.4335  123.8463   83.6624 Cl  0  0  0  0  0  0  0  0  0  0  0  0
  124.0810  122.5351   85.9269 C   0  0  0  0  0  0  0  0  0  0  0  0
  123.7634  121.8974   87.1289 C   0  0  0  0  0  0  0  0  0  0  0  0
  125.0677  121.2475   88.0686 Cl  0  0  0  0  0  0  0  0  0  0  0  0
  120.9254  124.6188   91.1539 H   0  0  0  0  0  0  0  0  0  0  0  0
  119.0588  121.0160   91.3780 H   0  0  0  0  0  0  0  0  0  0  0  0
  118.8245  122.2057   92.6867 H   0  0  0  0  0  0  0  0  0  0  0  0
  122.7677  120.1358   90.8518 H   0  0  0  0  0  0  0  0  0  0  0  0
  121.7079  121.0662   91.9444 H   0  0  0  0  0  0  0  0  0  0  0  0
  122.4895  120.1169   88.8187 H   0  0  0  0  0  0  0  0  0  0  0  0
  120.3719  122.2094   87.0651 H   0  0  0  0  0  0  0  0  0  0  0  0
  120.9292  123.3603   84.9288 H   0  0  0  0  0  0  0  0  0  0  0  0
  125.1286  122.6202   85.6025 H   0  0  0  0  0  0  0  0  0  0  0  0
  1  2  2  3
  2  3  1  0
  2  4  1  0
  4  5  2  3
  5  6  1  0
  5  7  1  0
  7  8  1  0
  8  9  2  0
  9 10  1  0
 10 11  2  0
 11 12  1  0
 11 13  1  0
 13 14  2  0
 14 15  1  0
 14  8  1  0
  1 16  1  0
  3 17  1  0
  3 18  1  0
  6 19  1  0
  6 20  1  0
  7 21  1  0
  9 22  1  0
 10 23  1  0
 13 24  1  0
M  END
>  <loss>  (14) 
0.7311906218528748

>  <score>  (14) 
2.1791770458221436

$$$$
YUOBDYAVSVCCNI-UHFFFAOYSA-N
     RDKit          3D

 24 24  0  0  0  0  0  0  0  0999 V2000
  118.9064  123.0436   91.2727 N   0  0  0  0  0  0  0  0  0  0  0  0
  120.1911  123.0251   91.1562 C   0  0  0  0  0  0  0  0  0  0  0  0
  120.9871  123.4178   92.1738 N   0  0  0  0  0  0  0  0  0  0  0  0
  120.7978  122.6132   90.0165 N   0  0  0  0  0  0  0  0  0  0  0  0
  121.5493  121.5629   89.9591 C   0  0  0  0  0  0  0  0  0  0  0  0
  121.8714  120.7460   91.0069 N   0  0  0  0  0  0  0  0  0  0  0  0
  122.1847  121.0983   88.8386 N   0  0  0  0  0  0  0  0  0  0  0  0
  122.4410  121.7725   87.6250 C   0  0  0  0  0  0  0  0  0  0  0  0
  121.4189  122.2928   86.8190 C   0  0  0  0  0  0  0  0  0  0  0  0
  121.7055  122.9322   85.6075 C   0  0  0  0  0  0  0  0  0  0  0  0
  123.0238  123.0492   85.1783 C   0  0  0  0  0  0  0  0  0  0  0  0
  123.3715  123.8352   83.6885 Cl  0  0  0  0  0  0  0  0  0  0  0  0
  124.0604  122.5271   85.9430 C   0  0  0  0  0  0  0  0  0  0  0  0
  123.7659  121.8896   87.1511 C   0  0  0  0  0  0  0  0  0  0  0  0
  125.0868  121.2451   88.0696 Cl  0  0  0  0  0  0  0  0  0  0  0  0
  118.3135  122.7407   90.4868 H   0  0  0  0  0  0  0  0  0  0  0  0
  122.0110  123.3970   92.0643 H   0  0  0  0  0  0  0  0  0  0  0  0
  120.5703  123.7382   93.0596 H   0  0  0  0  0  0  0  0  0  0  0  0
  122.4812  119.9298   90.8550 H   0  0  0  0  0  0  0  0  0  0  0  0
  121.5044  120.9466   91.9481 H   0  0  0  0  0  0  0  0  0  0  0  0
  122.5209  120.1259   88.8878 H   0  0  0  0  0  0  0  0  0  0  0  0
  120.3726  122.1967   87.1447 H   0  0  0  0  0  0  0  0  0  0  0  0
  120.8889  123.3420   84.9949 H   0  0  0  0  0  0  0  0  0  0  0  0
  125.1020  122.6147   85.6006 H   0  0  0  0  0  0  0  0  0  0  0  0
  1  2  2  3
  2  3  1  0
  2  4  1  0
  4  5  2  3
  5  6  1  0
  5  7  1  0
  7  8  1  0
  8  9  2  0
  9 10  1  0
 10 11  2  0
 11 12  1  0
 11 13  1  0
 13 14  2  0
 14 15  1  0
 14  8  1  0
  1 16  1  0
  3 17  1  0
  3 18  1  0
  6 19  1  0
  6 20  1  0
  7 21  1  0
  9 22  1  0
 10 23  1  0
 13 24  1  0
M  END
>  <loss>  (15) 
0.7312732934951782

>  <score>  (15) 
2.1571595668792725

$$$$
YUOBDYAVSVCCNI-UHFFFAOYSA-N
     RDKit          3D

 24 24  0  0  0  0  0  0  0  0999 V2000
  120.4292  123.3919   91.9099 N   0  0  0  0  0  0  0  0  0  0  0  0
  119.8397  122.7043   90.9963 C   0  0  0  0  0  0  0  0  0  0  0  0
  118.5700  122.2947   91.1643 N   0  0  0  0  0  0  0  0  0  0  0  0
  120.5107  122.3853   89.8674 N   0  0  0  0  0  0  0  0  0  0  0  0
  121.4534  121.5008   89.8825 C   0  0  0  0  0  0  0  0  0  0  0  0
  121.9079  120.8367   90.9893 N   0  0  0  0  0  0  0  0  0  0  0  0
  122.1835  121.0920   88.7999 N   0  0  0  0  0  0  0  0  0  0  0  0
  122.4466  121.7687   87.5867 C   0  0  0  0  0  0  0  0  0  0  0  0
  121.4378  122.2519   86.7431 C   0  0  0  0  0  0  0  0  0  0  0  0
  121.7453  122.8822   85.5310 C   0  0  0  0  0  0  0  0  0  0  0  0
  123.0718  123.0245   85.1364 C   0  0  0  0  0  0  0  0  0  0  0  0
  123.4431  123.7963   83.6451 Cl  0  0  0  0  0  0  0  0  0  0  0  0
  124.0974  122.5382   85.9375 C   0  0  0  0  0  0  0  0  0  0  0  0
  123.7822  121.9114   87.1459 C   0  0  0  0  0  0  0  0  0  0  0  0
  125.0916  121.3104   88.1108 Cl  0  0  0  0  0  0  0  0  0  0  0  0
  121.4019  123.7020   91.7740 H   0  0  0  0  0  0  0  0  0  0  0  0
  118.1047  121.7444   90.4284 H   0  0  0  0  0  0  0  0  0  0  0  0
  118.0627  122.5311   92.0290 H   0  0  0  0  0  0  0  0  0  0  0  0
  122.6670  120.1463   90.9001 H   0  0  0  0  0  0  0  0  0  0  0  0
  121.4908  121.0272   91.9116 H   0  0  0  0  0  0  0  0  0  0  0  0
  122.6025  120.1546   88.8805 H   0  0  0  0  0  0  0  0  0  0  0  0
  120.3848  122.1339   87.0383 H   0  0  0  0  0  0  0  0  0  0  0  0
  120.9373  123.2652   84.8903 H   0  0  0  0  0  0  0  0  0  0  0  0
  125.1462  122.6454   85.6239 H   0  0  0  0  0  0  0  0  0  0  0  0
  1  2  2  3
  2  3  1  0
  2  4  1  0
  4  5  2  3
  5  6  1  0
  5  7  1  0
  7  8  1  0
  8  9  2  0
  9 10  1  0
 10 11  2  0
 11 12  1  0
 11 13  1  0
 13 14  2  0
 14 15  1  0
 14  8  1  0
  1 16  1  0
  3 17  1  0
  3 18  1  0
  6 19  1  0
  6 20  1  0
  7 21  1  0
  9 22  1  0
 10 23  1  0
 13 24  1  0
M  END
>  <loss>  (16) 
0.7363645434379578

>  <score>  (16) 
2.157870054244995

$$$$
YUOBDYAVSVCCNI-UHFFFAOYSA-N
     RDKit          3D

 24 24  0  0  0  0  0  0  0  0999 V2000
  120.6745  123.7224   91.8829 N   0  0  0  0  0  0  0  0  0  0  0  0
  120.2288  122.6975   91.2459 C   0  0  0  0  0  0  0  0  0  0  0  0
  119.2544  121.9370   91.7754 N   0  0  0  0  0  0  0  0  0  0  0  0
  120.7557  122.3821   90.0421 N   0  0  0  0  0  0  0  0  0  0  0  0
  121.6420  121.4478   89.9291 C   0  0  0  0  0  0  0  0  0  0  0  0
  122.1731  120.7218   90.9604 N   0  0  0  0  0  0  0  0  0  0  0  0
  122.2274  121.0380   88.7623 N   0  0  0  0  0  0  0  0  0  0  0  0
  122.4474  121.7591   87.5662 C   0  0  0  0  0  0  0  0  0  0  0  0
  121.4097  122.2819   86.7834 C   0  0  0  0  0  0  0  0  0  0  0  0
  121.6737  122.9564   85.5849 C   0  0  0  0  0  0  0  0  0  0  0  0
  122.9843  123.1041   85.1425 C   0  0  0  0  0  0  0  0  0  0  0  0
  123.3021  123.9303   83.6680 Cl  0  0  0  0  0  0  0  0  0  0  0  0
  124.0371  122.5797   85.8820 C   0  0  0  0  0  0  0  0  0  0  0  0
  123.7653  121.9090   87.0773 C   0  0  0  0  0  0  0  0  0  0  0  0
  125.1071  121.2616   87.9645 Cl  0  0  0  0  0  0  0  0  0  0  0  0
  121.4211  124.3002   91.4709 H   0  0  0  0  0  0  0  0  0  0  0  0
  118.9026  121.1179   91.2594 H   0  0  0  0  0  0  0  0  0  0  0  0
  118.8597  122.1735   92.6969 H   0  0  0  0  0  0  0  0  0  0  0  0
  122.8773  119.9948   90.7693 H   0  0  0  0  0  0  0  0  0  0  0  0
  121.8688  120.9024   91.9277 H   0  0  0  0  0  0  0  0  0  0  0  0
  122.5557  120.0618   88.7540 H   0  0  0  0  0  0  0  0  0  0  0  0
  120.3684  122.1604   87.1164 H   0  0  0  0  0  0  0  0  0  0  0  0
  120.8440  123.3698   84.9927 H   0  0  0  0  0  0  0  0  0  0  0  0
  125.0734  122.6913   85.5304 H   0  0  0  0  0  0  0  0  0  0  0  0
  1  2  2  3
  2  3  1  0
  2  4  1  0
  4  5  2  3
  5  6  1  0
  5  7  1  0
  7  8  1  0
  8  9  2  0
  9 10  1  0
 10 11  2  0
 11 12  1  0
 11 13  1  0
 13 14  2  0
 14 15  1  0
 14  8  1  0
  1 16  1  0
  3 17  1  0
  3 18  1  0
  6 19  1  0
  6 20  1  0
  7 21  1  0
  9 22  1  0
 10 23  1  0
 13 24  1  0
M  END
>  <loss>  (17) 
0.7358664870262146

>  <score>  (17) 
2.1528916358947754

$$$$
YUOBDYAVSVCCNI-UHFFFAOYSA-N
     RDKit          3D

 24 24  0  0  0  0  0  0  0  0999 V2000
  119.3999  122.0334   91.8327 N   0  0  0  0  0  0  0  0  0  0  0  0
  119.7390  122.8332   90.8789 C   0  0  0  0  0  0  0  0  0  0  0  0
  119.4661  124.1538   90.9490 N   0  0  0  0  0  0  0  0  0  0  0  0
  120.3808  122.3896   89.7707 N   0  0  0  0  0  0  0  0  0  0  0  0
  121.3861  121.5782   89.8168 C   0  0  0  0  0  0  0  0  0  0  0  0
  121.9669  121.0805   90.9499 N   0  0  0  0  0  0  0  0  0  0  0  0
  122.0707  121.0956   88.7334 N   0  0  0  0  0  0  0  0  0  0  0  0
  122.4129  121.7617   87.5366 C   0  0  0  0  0  0  0  0  0  0  0  0
  121.4507  122.2641   86.6496 C   0  0  0  0  0  0  0  0  0  0  0  0
  121.8233  122.8957   85.4576 C   0  0  0  0  0  0  0  0  0  0  0  0
  123.1696  123.0227   85.1298 C   0  0  0  0  0  0  0  0  0  0  0  0
  123.6230  123.7990   83.6635 Cl  0  0  0  0  0  0  0  0  0  0  0  0
  124.1493  122.5182   85.9767 C   0  0  0  0  0  0  0  0  0  0  0  0
  123.7691  121.8884   87.1647 C   0  0  0  0  0  0  0  0  0  0  0  0
  125.0217  121.2659   88.1881 Cl  0  0  0  0  0  0  0  0  0  0  0  0
  119.6156  121.0286   91.7634 H   0  0  0  0  0  0  0  0  0  0  0  0
  119.7438  124.7787   90.1788 H   0  0  0  0  0  0  0  0  0  0  0  0
  118.9804  124.5362   91.7729 H   0  0  0  0  0  0  0  0  0  0  0  0
  122.7678  120.4368   90.8780 H   0  0  0  0  0  0  0  0  0  0  0  0
  121.6037  121.3493   91.8755 H   0  0  0  0  0  0  0  0  0  0  0  0
  122.3772  120.1146   88.8007 H   0  0  0  0  0  0  0  0  0  0  0  0
  120.3835  122.1601   86.8950 H   0  0  0  0  0  0  0  0  0  0  0  0
  121.0523  123.2915   84.7802 H   0  0  0  0  0  0  0  0  0  0  0  0
  125.2133  122.6137   85.7144 H   0  0  0  0  0  0  0  0  0  0  0  0
  1  2  2  3
  2  3  1  0
  2  4  1  0
  4  5  2  3
  5  6  1  0
  5  7  1  0
  7  8  1  0
  8  9  2  0
  9 10  1  0
 10 11  2  0
 11 12  1  0
 11 13  1  0
 13 14  2  0
 14 15  1  0
 14  8  1  0
  1 16  1  0
  3 17  1  0
  3 18  1  0
  6 19  1  0
  6 20  1  0
  7 21  1  0
  9 22  1  0
 10 23  1  0
 13 24  1  0
M  END
>  <loss>  (18) 
0.7365615963935852

>  <score>  (18) 
2.146228551864624

$$$$
YUOBDYAVSVCCNI-UHFFFAOYSA-N
     RDKit          3D

 24 24  0  0  0  0  0  0  0  0999 V2000
  118.9781  122.6791   91.3906 N   0  0  0  0  0  0  0  0  0  0  0  0
  120.2394  122.8550   91.1843 C   0  0  0  0  0  0  0  0  0  0  0  0
  121.0251  123.4220   92.1248 N   0  0  0  0  0  0  0  0  0  0  0  0
  120.8310  122.4811   90.0237 N   0  0  0  0  0  0  0  0  0  0  0  0
  121.6297  121.4685   89.9351 C   0  0  0  0  0  0  0  0  0  0  0  0
  122.0213  120.6601   90.9657 N   0  0  0  0  0  0  0  0  0  0  0  0
  122.2530  121.0432   88.7924 N   0  0  0  0  0  0  0  0  0  0  0  0
  122.4678  121.7487   87.5885 C   0  0  0  0  0  0  0  0  0  0  0  0
  121.4171  122.2633   86.8165 C   0  0  0  0  0  0  0  0  0  0  0  0
  121.6629  122.9346   85.6132 C   0  0  0  0  0  0  0  0  0  0  0  0
  122.9686  123.0899   85.1583 C   0  0  0  0  0  0  0  0  0  0  0  0
  123.2661  123.9150   83.6788 Cl  0  0  0  0  0  0  0  0  0  0  0  0
  124.0328  122.5746   85.8887 C   0  0  0  0  0  0  0  0  0  0  0  0
  123.7790  121.9052   87.0888 C   0  0  0  0  0  0  0  0  0  0  0  0
  125.1336  121.2706   87.9642 Cl  0  0  0  0  0  0  0  0  0  0  0  0
  118.3928  122.2450   90.6626 H   0  0  0  0  0  0  0  0  0  0  0  0
  122.0303  123.5552   91.9441 H   0  0  0  0  0  0  0  0  0  0  0  0
  120.6192  123.7214   93.0229 H   0  0  0  0  0  0  0  0  0  0  0  0
  122.6645  119.8753   90.7889 H   0  0  0  0  0  0  0  0  0  0  0  0
  121.6732  120.8359   91.9190 H   0  0  0  0  0  0  0  0  0  0  0  0
  122.6138  120.0787   88.8141 H   0  0  0  0  0  0  0  0  0  0  0  0
  120.3806  122.1372   87.1626 H   0  0  0  0  0  0  0  0  0  0  0  0
  120.8243  123.3392   85.0276 H   0  0  0  0  0  0  0  0  0  0  0  0
  125.0645  122.6926   85.5259 H   0  0  0  0  0  0  0  0  0  0  0  0
  1  2  2  3
  2  3  1  0
  2  4  1  0
  4  5  2  3
  5  6  1  0
  5  7  1  0
  7  8  1  0
  8  9  2  0
  9 10  1  0
 10 11  2  0
 11 12  1  0
 11 13  1  0
 13 14  2  0
 14 15  1  0
 14  8  1  0
  1 16  1  0
  3 17  1  0
  3 18  1  0
  6 19  1  0
  6 20  1  0
  7 21  1  0
  9 22  1  0
 10 23  1  0
 13 24  1  0
M  END
>  <loss>  (19) 
0.7366292476654053

>  <score>  (19) 
2.125931978225708

$$$$
YUOBDYAVSVCCNI-UHFFFAOYSA-N
     RDKit          3D

 24 24  0  0  0  0  0  0  0  0999 V2000
  127.9712  121.9722   89.1520 N   0  0  0  0  0  0  0  0  0  0  0  0
  128.0841  122.3224   87.9196 C   0  0  0  0  0  0  0  0  0  0  0  0
  128.6798  123.4908   87.6067 N   0  0  0  0  0  0  0  0  0  0  0  0
  127.7113  121.4739   86.9336 N   0  0  0  0  0  0  0  0  0  0  0  0
  126.4650  121.1945   86.7272 C   0  0  0  0  0  0  0  0  0  0  0  0
  126.2062  120.2333   85.7943 N   0  0  0  0  0  0  0  0  0  0  0  0
  125.3099  121.6407   87.3021 N   0  0  0  0  0  0  0  0  0  0  0  0
  124.1689  122.1659   86.6425 C   0  0  0  0  0  0  0  0  0  0  0  0
  124.2380  122.7898   85.3902 C   0  0  0  0  0  0  0  0  0  0  0  0
  123.0963  123.3303   84.7887 C   0  0  0  0  0  0  0  0  0  0  0  0
  121.8665  123.2522   85.4353 C   0  0  0  0  0  0  0  0  0  0  0  0
  120.4653  123.9155   84.6901 Cl  0  0  0  0  0  0  0  0  0  0  0  0
  121.7624  122.6336   86.6758 C   0  0  0  0  0  0  0  0  0  0  0  0
  122.9065  122.0966   87.2711 C   0  0  0  0  0  0  0  0  0  0  0  0
  122.7304  121.3153   88.8078 Cl  0  0  0  0  0  0  0  0  0  0  0  0
  127.5166  121.0803   89.3944 H   0  0  0  0  0  0  0  0  0  0  0  0
  128.7717  123.7742   86.6207 H   0  0  0  0  0  0  0  0  0  0  0  0
  129.0429  124.1000   88.3536 H   0  0  0  0  0  0  0  0  0  0  0  0
  125.2335  119.9669   85.5854 H   0  0  0  0  0  0  0  0  0  0  0  0
  126.9837  119.7741   85.2987 H   0  0  0  0  0  0  0  0  0  0  0  0
  125.2613  121.5903   88.3297 H   0  0  0  0  0  0  0  0  0  0  0  0
  125.2057  122.8558   84.8713 H   0  0  0  0  0  0  0  0  0  0  0  0
  123.1707  123.8168   83.8049 H   0  0  0  0  0  0  0  0  0  0  0  0
  120.7889  122.5675   87.1837 H   0  0  0  0  0  0  0  0  0  0  0  0
  1  2  2  3
  2  3  1  0
  2  4  1  0
  4  5  2  3
  5  6  1  0
  5  7  1  0
  7  8  1  0
  8  9  2  0
  9 10  1  0
 10 11  2  0
 11 12  1  0
 11 13  1  0
 13 14  2  0
 14 15  1  0
 14  8  1  0
  1 16  1  0
  3 17  1  0
  3 18  1  0
  6 19  1  0
  6 20  1  0
  7 21  1  0
  9 22  1  0
 10 23  1  0
 13 24  1  0
M  END
>  <loss>  (20) 
0.6606863141059875

>  <score>  (20) 
1.2914406061172485

$$$$
YUOBDYAVSVCCNI-UHFFFAOYSA-N
     RDKit          3D

 24 24  0  0  0  0  0  0  0  0999 V2000
  129.1528  121.0926   86.9766 N   0  0  0  0  0  0  0  0  0  0  0  0
  128.3935  122.1238   87.0671 C   0  0  0  0  0  0  0  0  0  0  0  0
  128.9036  123.3142   87.4452 N   0  0  0  0  0  0  0  0  0  0  0  0
  127.1012  121.9369   86.7242 N   0  0  0  0  0  0  0  0  0  0  0  0
  126.2934  121.3228   87.5250 C   0  0  0  0  0  0  0  0  0  0  0  0
  126.6086  120.8249   88.7604 N   0  0  0  0  0  0  0  0  0  0  0  0
  124.9682  121.0770   87.2868 N   0  0  0  0  0  0  0  0  0  0  0  0
  124.0142  121.8758   86.6169 C   0  0  0  0  0  0  0  0  0  0  0  0
  124.2136  122.3847   85.3269 C   0  0  0  0  0  0  0  0  0  0  0  0
  123.2277  123.1453   84.6866 C   0  0  0  0  0  0  0  0  0  0  0  0
  122.0176  123.3966   85.3255 C   0  0  0  0  0  0  0  0  0  0  0  0
  120.8095  124.3299   84.5336 Cl  0  0  0  0  0  0  0  0  0  0  0  0
  121.7776  122.8907   86.5970 C   0  0  0  0  0  0  0  0  0  0  0  0
  122.7668  122.1330   87.2293 C   0  0  0  0  0  0  0  0  0  0  0  0
  122.4240  121.5144   88.8123 Cl  0  0  0  0  0  0  0  0  0  0  0  0
  128.7581  120.1862   86.6875 H   0  0  0  0  0  0  0  0  0  0  0  0
  128.2898  124.1383   87.5161 H   0  0  0  0  0  0  0  0  0  0  0  0
  129.9067  123.3989   87.6629 H   0  0  0  0  0  0  0  0  0  0  0  0
  125.8886  120.3495   89.3230 H   0  0  0  0  0  0  0  0  0  0  0  0
  127.5657  120.9256   89.1274 H   0  0  0  0  0  0  0  0  0  0  0  0
  124.6150  120.1796   87.6484 H   0  0  0  0  0  0  0  0  0  0  0  0
  125.1621  122.1830   84.8076 H   0  0  0  0  0  0  0  0  0  0  0  0
  123.4100  123.5443   83.6779 H   0  0  0  0  0  0  0  0  0  0  0  0
  120.8190  123.0845   87.1006 H   0  0  0  0  0  0  0  0  0  0  0  0
  1  2  2  3
  2  3  1  0
  2  4  1  0
  4  5  2  3
  5  6  1  0
  5  7  1  0
  7  8  1  0
  8  9  2  0
  9 10  1  0
 10 11  2  0
 11 12  1  0
 11 13  1  0
 13 14  2  0
 14 15  1  0
 14  8  1  0
  1 16  1  0
  3 17  1  0
  3 18  1  0
  6 19  1  0
  6 20  1  0
  7 21  1  0
  9 22  1  0
 10 23  1  0
 13 24  1  0
M  END
>  <loss>  (21) 
0.5732988119125366

>  <score>  (21) 
-0.9355888366699219

$$$$
YUOBDYAVSVCCNI-UHFFFAOYSA-N
     RDKit          3D

 24 24  0  0  0  0  0  0  0  0999 V2000
  119.8334  121.9631   92.0431 N   0  0  0  0  0  0  0  0  0  0  0  0
  119.9811  122.7562   91.0364 C   0  0  0  0  0  0  0  0  0  0  0  0
  119.5699  124.0409   91.0974 N   0  0  0  0  0  0  0  0  0  0  0  0
  120.5522  122.3411   89.8795 N   0  0  0  0  0  0  0  0  0  0  0  0
  121.5301  121.4966   89.8406 C   0  0  0  0  0  0  0  0  0  0  0  0
  122.1485  120.9315   90.9210 N   0  0  0  0  0  0  0  0  0  0  0  0
  122.1438  121.0402   88.7047 N   0  0  0  0  0  0  0  0  0  0  0  0
  122.4385  121.7435   87.5166 C   0  0  0  0  0  0  0  0  0  0  0  0
  121.4418  122.2597   86.6770 C   0  0  0  0  0  0  0  0  0  0  0  0
  121.7674  122.9287   85.4915 C   0  0  0  0  0  0  0  0  0  0  0  0
  123.1004  123.0800   85.1226 C   0  0  0  0  0  0  0  0  0  0  0  0
  123.4960  123.9024   83.6647 Cl  0  0  0  0  0  0  0  0  0  0  0  0
  124.1134  122.5631   85.9216 C   0  0  0  0  0  0  0  0  0  0  0  0
  123.7800  121.8959   87.1033 C   0  0  0  0  0  0  0  0  0  0  0  0
  125.0729  121.2592   88.0660 Cl  0  0  0  0  0  0  0  0  0  0  0  0
  120.1525  120.9858   91.9801 H   0  0  0  0  0  0  0  0  0  0  0  0
  119.6953  124.6610   90.2845 H   0  0  0  0  0  0  0  0  0  0  0  0
  119.1308  124.4009   91.9568 H   0  0  0  0  0  0  0  0  0  0  0  0
  122.9224  120.2663   90.7818 H   0  0  0  0  0  0  0  0  0  0  0  0
  121.8406  121.1711   91.8743 H   0  0  0  0  0  0  0  0  0  0  0  0
  122.4288  120.0505   88.7191 H   0  0  0  0  0  0  0  0  0  0  0  0
  120.3846  122.1367   86.9548 H   0  0  0  0  0  0  0  0  0  0  0  0
  120.9699  123.3346   84.8518 H   0  0  0  0  0  0  0  0  0  0  0  0
  125.1669  122.6780   85.6267 H   0  0  0  0  0  0  0  0  0  0  0  0
  1  2  2  3
  2  3  1  0
  2  4  1  0
  4  5  2  3
  5  6  1  0
  5  7  1  0
  7  8  1  0
  8  9  2  0
  9 10  1  0
 10 11  2  0
 11 12  1  0
 11 13  1  0
 13 14  2  0
 14 15  1  0
 14  8  1  0
  1 16  1  0
  3 17  1  0
  3 18  1  0
  6 19  1  0
  6 20  1  0
  7 21  1  0
  9 22  1  0
 10 23  1  0
 13 24  1  0
M  END
>  <loss>  (22) 
0.7398192882537842

>  <score>  (22) 
-0.9143364429473877

$$$$
YUOBDYAVSVCCNI-UHFFFAOYSA-N
     RDKit          3D

 24 24  0  0  0  0  0  0  0  0999 V2000
  128.8817  122.5839   87.6489 N   0  0  0  0  0  0  0  0  0  0  0  0
  128.3920  122.4823   86.4674 C   0  0  0  0  0  0  0  0  0  0  0  0
  129.1897  122.5686   85.3817 N   0  0  0  0  0  0  0  0  0  0  0  0
  127.0537  122.3383   86.3779 N   0  0  0  0  0  0  0  0  0  0  0  0
  126.4587  121.4589   87.1163 C   0  0  0  0  0  0  0  0  0  0  0  0
  127.0630  120.6293   88.0214 N   0  0  0  0  0  0  0  0  0  0  0  0
  125.1109  121.2184   87.1393 N   0  0  0  0  0  0  0  0  0  0  0  0
  124.0646  121.9607   86.5442 C   0  0  0  0  0  0  0  0  0  0  0  0
  124.1408  122.4806   85.2452 C   0  0  0  0  0  0  0  0  0  0  0  0
  123.0664  123.1772   84.6788 C   0  0  0  0  0  0  0  0  0  0  0  0
  121.8899  123.3498   85.4012 C   0  0  0  0  0  0  0  0  0  0  0  0
  120.5723  124.2035   84.6992 Cl  0  0  0  0  0  0  0  0  0  0  0  0
  121.7711  122.8276   86.6833 C   0  0  0  0  0  0  0  0  0  0  0  0
  122.8480  122.1343   87.2418 C   0  0  0  0  0  0  0  0  0  0  0  0
  122.6546  121.4895   88.8393 Cl  0  0  0  0  0  0  0  0  0  0  0  0
  128.2637  122.5165   88.4701 H   0  0  0  0  0  0  0  0  0  0  0  0
  128.7856  122.4856   84.4379 H   0  0  0  0  0  0  0  0  0  0  0  0
  130.2023  122.7175   85.4972 H   0  0  0  0  0  0  0  0  0  0  0  0
  126.4982  119.9599   88.5635 H   0  0  0  0  0  0  0  0  0  0  0  0
  128.0825  120.6742   88.1606 H   0  0  0  0  0  0  0  0  0  0  0  0
  124.8186  120.3808   87.6625 H   0  0  0  0  0  0  0  0  0  0  0  0
  125.0613  122.3389   84.6599 H   0  0  0  0  0  0  0  0  0  0  0  0
  123.1526  123.5883   83.6622 H   0  0  0  0  0  0  0  0  0  0  0  0
  120.8390  122.9587   87.2527 H   0  0  0  0  0  0  0  0  0  0  0  0
  1  2  2  3
  2  3  1  0
  2  4  1  0
  4  5  2  3
  5  6  1  0
  5  7  1  0
  7  8  1  0
  8  9  2  0
  9 10  1  0
 10 11  2  0
 11 12  1  0
 11 13  1  0
 13 14  2  0
 14 15  1  0
 14  8  1  0
  1 16  1  0
  3 17  1  0
  3 18  1  0
  6 19  1  0
  6 20  1  0
  7 21  1  0
  9 22  1  0
 10 23  1  0
 13 24  1  0
M  END
>  <loss>  (23) 
0.5766959190368652

>  <score>  (23) 
-1.7903773784637451

$$$$
YUOBDYAVSVCCNI-UHFFFAOYSA-N
     RDKit          3D

 24 24  0  0  0  0  0  0  0  0999 V2000
  120.8163  122.9550   92.1680 N   0  0  0  0  0  0  0  0  0  0  0  0
  120.0968  122.6293   91.1525 C   0  0  0  0  0  0  0  0  0  0  0  0
  118.7578  122.5671   91.2580 N   0  0  0  0  0  0  0  0  0  0  0  0
  120.6982  122.3380   89.9778 N   0  0  0  0  0  0  0  0  0  0  0  0
  121.6055  121.4199   89.9059 C   0  0  0  0  0  0  0  0  0  0  0  0
  122.0882  120.6898   90.9578 N   0  0  0  0  0  0  0  0  0  0  0  0
  122.2646  121.0347   88.7704 N   0  0  0  0  0  0  0  0  0  0  0  0
  122.4778  121.7494   87.5692 C   0  0  0  0  0  0  0  0  0  0  0  0
  121.4348  122.2436   86.7751 C   0  0  0  0  0  0  0  0  0  0  0  0
  121.6928  122.9127   85.5722 C   0  0  0  0  0  0  0  0  0  0  0  0
  123.0031  123.0834   85.1370 C   0  0  0  0  0  0  0  0  0  0  0  0
  123.3136  123.9027   83.6571 Cl  0  0  0  0  0  0  0  0  0  0  0  0
  124.0614  122.5874   85.8880 C   0  0  0  0  0  0  0  0  0  0  0  0
  123.7955  121.9220   87.0876 C   0  0  0  0  0  0  0  0  0  0  0  0
  125.1444  121.3104   87.9893 Cl  0  0  0  0  0  0  0  0  0  0  0  0
  121.8415  123.0005   92.0795 H   0  0  0  0  0  0  0  0  0  0  0  0
  118.1884  122.3056   90.4405 H   0  0  0  0  0  0  0  0  0  0  0  0
  118.3014  122.7810   92.1562 H   0  0  0  0  0  0  0  0  0  0  0  0
  122.8147  119.9769   90.7996 H   0  0  0  0  0  0  0  0  0  0  0  0
  121.7251  120.8531   91.9077 H   0  0  0  0  0  0  0  0  0  0  0  0
  122.6638  120.0855   88.7941 H   0  0  0  0  0  0  0  0  0  0  0  0
  120.3940  122.1036   87.1024 H   0  0  0  0  0  0  0  0  0  0  0  0
  120.8587  123.3035   84.9709 H   0  0  0  0  0  0  0  0  0  0  0  0
  125.0975  122.7172   85.5421 H   0  0  0  0  0  0  0  0  0  0  0  0
  1  2  2  3
  2  3  1  0
  2  4  1  0
  4  5  2  3
  5  6  1  0
  5  7  1  0
  7  8  1  0
  8  9  2  0
  9 10  1  0
 10 11  2  0
 11 12  1  0
 11 13  1  0
 13 14  2  0
 14 15  1  0
 14  8  1  0
  1 16  1  0
  3 17  1  0
  3 18  1  0
  6 19  1  0
  6 20  1  0
  7 21  1  0
  9 22  1  0
 10 23  1  0
 13 24  1  0
M  END
>  <loss>  (24) 
0.7424696683883667

>  <score>  (24) 
-1.1754975318908691

$$$$
YUOBDYAVSVCCNI-UHFFFAOYSA-N
     RDKit          3D

 24 24  0  0  0  0  0  0  0  0999 V2000
  119.7610  122.4079   92.2374 N   0  0  0  0  0  0  0  0  0  0  0  0
  120.6366  123.0445   91.5357 C   0  0  0  0  0  0  0  0  0  0  0  0
  121.1975  124.1849   91.9921 N   0  0  0  0  0  0  0  0  0  0  0  0
  121.0327  122.6019   90.3175 N   0  0  0  0  0  0  0  0  0  0  0  0
  121.7294  121.5258   90.1518 C   0  0  0  0  0  0  0  0  0  0  0  0
  122.1935  120.7072   91.1436 N   0  0  0  0  0  0  0  0  0  0  0  0
  122.1552  121.0297   88.9485 N   0  0  0  0  0  0  0  0  0  0  0  0
  122.3626  121.7175   87.7332 C   0  0  0  0  0  0  0  0  0  0  0  0
  121.3097  122.2538   86.9792 C   0  0  0  0  0  0  0  0  0  0  0  0
  121.5473  122.9066   85.7641 C   0  0  0  0  0  0  0  0  0  0  0  0
  122.8464  123.0212   85.2793 C   0  0  0  0  0  0  0  0  0  0  0  0
  123.1337  123.8238   83.7854 Cl  0  0  0  0  0  0  0  0  0  0  0  0
  123.9119  122.4835   85.9914 C   0  0  0  0  0  0  0  0  0  0  0  0
  123.6663  121.8327   87.2034 C   0  0  0  0  0  0  0  0  0  0  0  0
  125.0219  121.1691   88.0554 Cl  0  0  0  0  0  0  0  0  0  0  0  0
  119.3429  121.5394   91.8745 H   0  0  0  0  0  0  0  0  0  0  0  0
  121.8951  124.6809   91.4192 H   0  0  0  0  0  0  0  0  0  0  0  0
  120.9276  124.5588   92.9131 H   0  0  0  0  0  0  0  0  0  0  0  0
  122.7426  119.8691   90.9049 H   0  0  0  0  0  0  0  0  0  0  0  0
  121.9940  120.9286   92.1296 H   0  0  0  0  0  0  0  0  0  0  0  0
  122.3503  120.0185   88.9272 H   0  0  0  0  0  0  0  0  0  0  0  0
  120.2780  122.1599   87.3490 H   0  0  0  0  0  0  0  0  0  0  0  0
  120.7074  123.3288   85.1929 H   0  0  0  0  0  0  0  0  0  0  0  0
  124.9382  122.5693   85.6050 H   0  0  0  0  0  0  0  0  0  0  0  0
  1  2  2  3
  2  3  1  0
  2  4  1  0
  4  5  2  3
  5  6  1  0
  5  7  1  0
  7  8  1  0
  8  9  2  0
  9 10  1  0
 10 11  2  0
 11 12  1  0
 11 13  1  0
 13 14  2  0
 14 15  1  0
 14  8  1  0
  1 16  1  0
  3 17  1  0
  3 18  1  0
  6 19  1  0
  6 20  1  0
  7 21  1  0
  9 22  1  0
 10 23  1  0
 13 24  1  0
M  END
>  <loss>  (25) 
0.6486283540725708

>  <score>  (25) 
-5.89847469329834

$$$$
