ZJAWVBLMRPEUPW-UHFFFAOYSA-N
     RDKit          3D

 24 24  0  0  0  0  0  0  0  0999 V2000
  120.4254  123.4246   92.1365 N   0  0  0  0  0  0  0  0  0  0  0  0
  120.2632  123.7315   90.8939 C   0  0  0  0  0  0  0  0  0  0  0  0
  119.4777  124.7681   90.5310 N   0  0  0  0  0  0  0  0  0  0  0  0
  120.8660  123.0323   89.9018 N   0  0  0  0  0  0  0  0  0  0  0  0
  121.2764  121.8150   90.0446 C   0  0  0  0  0  0  0  0  0  0  0  0
  121.1417  121.0465   91.1681 N   0  0  0  0  0  0  0  0  0  0  0  0
  121.8916  121.0600   89.0798 N   0  0  0  0  0  0  0  0  0  0  0  0
  123.0147  121.3780   88.2951 C   0  0  0  0  0  0  0  0  0  0  0  0
  124.3286  121.0823   88.6754 C   0  0  0  0  0  0  0  0  0  0  0  0
  125.4133  121.3972   87.8485 C   0  0  0  0  0  0  0  0  0  0  0  0
  125.2005  122.0077   86.6133 C   0  0  0  0  0  0  0  0  0  0  0  0
  126.5811  122.3703   85.6418 Cl  0  0  0  0  0  0  0  0  0  0  0  0
  123.8964  122.2949   86.2060 C   0  0  0  0  0  0  0  0  0  0  0  0
  123.5438  123.0398   84.6862 Cl  0  0  0  0  0  0  0  0  0  0  0  0
  122.8163  121.9753   87.0396 C   0  0  0  0  0  0  0  0  0  0  0  0
  121.0281  122.6308   92.3964 H   0  0  0  0  0  0  0  0  0  0  0  0
  119.3587  124.9999   89.5345 H   0  0  0  0  0  0  0  0  0  0  0  0
  118.9975  125.3270   91.2506 H   0  0  0  0  0  0  0  0  0  0  0  0
  121.5053  120.0829   91.1795 H   0  0  0  0  0  0  0  0  0  0  0  0
  120.6767  121.4314   92.0027 H   0  0  0  0  0  0  0  0  0  0  0  0
  121.4749  120.1343   88.9061 H   0  0  0  0  0  0  0  0  0  0  0  0
  124.5126  120.5928   89.6431 H   0  0  0  0  0  0  0  0  0  0  0  0
  126.4372  121.1622   88.1745 H   0  0  0  0  0  0  0  0  0  0  0  0
  121.7924  122.1969   86.7039 H   0  0  0  0  0  0  0  0  0  0  0  0
  1  2  2  3
  2  3  1  0
  2  4  1  0
  4  5  2  3
  5  6  1  0
  5  7  1  0
  7  8  1  0
  8  9  2  0
  9 10  1  0
 10 11  2  0
 11 12  1  0
 11 13  1  0
 13 14  1  0
 13 15  2  0
 15  8  1  0
  1 16  1  0
  3 17  1  0
  3 18  1  0
  6 19  1  0
  6 20  1  0
  7 21  1  0
  9 22  1  0
 10 23  1  0
 15 24  1  0
M  END
>  <loss>  (1) 
0.5793783068656921

>  <score>  (1) 
2.464186191558838

$$$$
ZJAWVBLMRPEUPW-UHFFFAOYSA-N
     RDKit          3D

 24 24  0  0  0  0  0  0  0  0999 V2000
  119.6708  122.8613   91.8040 N   0  0  0  0  0  0  0  0  0  0  0  0
  120.1001  123.5843   90.8342 C   0  0  0  0  0  0  0  0  0  0  0  0
  119.8712  124.9139   90.8219 N   0  0  0  0  0  0  0  0  0  0  0  0
  120.7408  122.9283   89.8438 N   0  0  0  0  0  0  0  0  0  0  0  0
  121.2966  121.7841   90.0720 C   0  0  0  0  0  0  0  0  0  0  0  0
  121.3324  121.1320   91.2758 N   0  0  0  0  0  0  0  0  0  0  0  0
  121.9716  121.0242   89.1526 N   0  0  0  0  0  0  0  0  0  0  0  0
  123.0133  121.3976   88.2815 C   0  0  0  0  0  0  0  0  0  0  0  0
  124.3351  121.1038   88.6566 C   0  0  0  0  0  0  0  0  0  0  0  0
  125.4152  121.4191   87.8255 C   0  0  0  0  0  0  0  0  0  0  0  0
  125.1927  122.0237   86.5891 C   0  0  0  0  0  0  0  0  0  0  0  0
  126.5684  122.3863   85.6102 Cl  0  0  0  0  0  0  0  0  0  0  0  0
  123.8852  122.3039   86.1869 C   0  0  0  0  0  0  0  0  0  0  0  0
  123.5270  123.0333   84.6604 Cl  0  0  0  0  0  0  0  0  0  0  0  0
  122.8088  121.9848   87.0270 C   0  0  0  0  0  0  0  0  0  0  0  0
  119.8486  121.8468   91.8080 H   0  0  0  0  0  0  0  0  0  0  0  0
  120.2181  125.4890   90.0410 H   0  0  0  0  0  0  0  0  0  0  0  0
  119.3494  125.3538   91.5934 H   0  0  0  0  0  0  0  0  0  0  0  0
  121.8031  120.2191   91.3532 H   0  0  0  0  0  0  0  0  0  0  0  0
  120.8886  121.5544   92.1038 H   0  0  0  0  0  0  0  0  0  0  0  0
  121.6748  120.0398   89.0898 H   0  0  0  0  0  0  0  0  0  0  0  0
  124.5245  120.6158   89.6240 H   0  0  0  0  0  0  0  0  0  0  0  0
  126.4415  121.1895   88.1479 H   0  0  0  0  0  0  0  0  0  0  0  0
  121.7829  122.2003   86.6937 H   0  0  0  0  0  0  0  0  0  0  0  0
  1  2  2  3
  2  3  1  0
  2  4  1  0
  4  5  2  3
  5  6  1  0
  5  7  1  0
  7  8  1  0
  8  9  2  0
  9 10  1  0
 10 11  2  0
 11 12  1  0
 11 13  1  0
 13 14  1  0
 13 15  2  0
 15  8  1  0
  1 16  1  0
  3 17  1  0
  3 18  1  0
  6 19  1  0
  6 20  1  0
  7 21  1  0
  9 22  1  0
 10 23  1  0
 15 24  1  0
M  END
>  <loss>  (2) 
0.5796419978141785

>  <score>  (2) 
2.4344518184661865

$$$$
ZJAWVBLMRPEUPW-UHFFFAOYSA-N
     RDKit          3D

 24 24  0  0  0  0  0  0  0  0999 V2000
  119.4219  124.2917   90.5369 N   0  0  0  0  0  0  0  0  0  0  0  0
  120.3331  123.4977   90.9691 C   0  0  0  0  0  0  0  0  0  0  0  0
  120.5069  123.3152   92.2945 N   0  0  0  0  0  0  0  0  0  0  0  0
  121.1029  122.9122   90.0277 N   0  0  0  0  0  0  0  0  0  0  0  0
  121.1779  121.6240   89.9540 C   0  0  0  0  0  0  0  0  0  0  0  0
  120.5462  120.7330   90.7805 N   0  0  0  0  0  0  0  0  0  0  0  0
  121.9202  120.9139   89.0466 N   0  0  0  0  0  0  0  0  0  0  0  0
  122.9512  121.3550   88.1946 C   0  0  0  0  0  0  0  0  0  0  0  0
  122.7335  121.9189   86.9331 C   0  0  0  0  0  0  0  0  0  0  0  0
  123.8016  122.3055   86.1136 C   0  0  0  0  0  0  0  0  0  0  0  0
  125.1165  122.1194   86.5368 C   0  0  0  0  0  0  0  0  0  0  0  0
  126.3863  122.6171   85.4785 Cl  0  0  0  0  0  0  0  0  0  0  0  0
  125.3582  121.5375   87.7819 C   0  0  0  0  0  0  0  0  0  0  0  0
  126.9560  121.2568   88.3793 Cl  0  0  0  0  0  0  0  0  0  0  0  0
  124.2833  121.1540   88.5956 C   0  0  0  0  0  0  0  0  0  0  0  0
  119.2945  124.4266   89.5238 H   0  0  0  0  0  0  0  0  0  0  0  0
  121.2400  122.6766   92.6346 H   0  0  0  0  0  0  0  0  0  0  0  0
  119.9066  123.8144   92.9662 H   0  0  0  0  0  0  0  0  0  0  0  0
  120.6711  119.7206   90.6380 H   0  0  0  0  0  0  0  0  0  0  0  0
  119.9463  121.0754   91.5445 H   0  0  0  0  0  0  0  0  0  0  0  0
  121.6906  119.9122   88.9777 H   0  0  0  0  0  0  0  0  0  0  0  0
  121.7024  122.0617   86.5775 H   0  0  0  0  0  0  0  0  0  0  0  0
  123.6017  122.7583   85.1312 H   0  0  0  0  0  0  0  0  0  0  0  0
  124.4868  120.6854   89.5698 H   0  0  0  0  0  0  0  0  0  0  0  0
  1  2  2  3
  2  3  1  0
  2  4  1  0
  4  5  2  3
  5  6  1  0
  5  7  1  0
  7  8  1  0
  8  9  2  0
  9 10  1  0
 10 11  2  0
 11 12  1  0
 11 13  1  0
 13 14  1  0
 13 15  2  0
 15  8  1  0
  1 16  1  0
  3 17  1  0
  3 18  1  0
  6 19  1  0
  6 20  1  0
  7 21  1  0
  9 22  1  0
 10 23  1  0
 15 24  1  0
M  END
>  <loss>  (3) 
0.6124900579452515

>  <score>  (3) 
2.206205368041992

$$$$
ZJAWVBLMRPEUPW-UHFFFAOYSA-N
     RDKit          3D

 24 24  0  0  0  0  0  0  0  0999 V2000
  118.8653  122.5861   90.2702 N   0  0  0  0  0  0  0  0  0  0  0  0
  119.9847  122.9602   90.7808 C   0  0  0  0  0  0  0  0  0  0  0  0
  120.2106  124.2667   91.0261 N   0  0  0  0  0  0  0  0  0  0  0  0
  120.8857  122.0298   91.1735 N   0  0  0  0  0  0  0  0  0  0  0  0
  121.5885  121.3987   90.2905 C   0  0  0  0  0  0  0  0  0  0  0  0
  122.3944  120.3911   90.7307 N   0  0  0  0  0  0  0  0  0  0  0  0
  121.6525  121.4977   88.9310 N   0  0  0  0  0  0  0  0  0  0  0  0
  122.8162  121.6054   88.1432 C   0  0  0  0  0  0  0  0  0  0  0  0
  124.0817  121.2042   88.5838 C   0  0  0  0  0  0  0  0  0  0  0  0
  125.2143  121.3756   87.7803 C   0  0  0  0  0  0  0  0  0  0  0  0
  125.0999  121.9640   86.5208 C   0  0  0  0  0  0  0  0  0  0  0  0
  126.5358  122.1397   85.5778 Cl  0  0  0  0  0  0  0  0  0  0  0  0
  123.8469  122.3849   86.0702 C   0  0  0  0  0  0  0  0  0  0  0  0
  123.6189  123.1263   84.5254 Cl  0  0  0  0  0  0  0  0  0  0  0  0
  122.7177  122.2102   86.8807 C   0  0  0  0  0  0  0  0  0  0  0  0
  118.6926  121.5882   90.0828 H   0  0  0  0  0  0  0  0  0  0  0  0
  121.1072  124.5664   91.4351 H   0  0  0  0  0  0  0  0  0  0  0  0
  119.4866  124.9650   90.8046 H   0  0  0  0  0  0  0  0  0  0  0  0
  122.9710  119.8627   90.0604 H   0  0  0  0  0  0  0  0  0  0  0  0
  122.4266  120.1581   91.7335 H   0  0  0  0  0  0  0  0  0  0  0  0
  120.7544  121.4932   88.4267 H   0  0  0  0  0  0  0  0  0  0  0  0
  124.1883  120.7464   89.5783 H   0  0  0  0  0  0  0  0  0  0  0  0
  126.1987  121.0452   88.1432 H   0  0  0  0  0  0  0  0  0  0  0  0
  121.7364  122.5531   86.5211 H   0  0  0  0  0  0  0  0  0  0  0  0
  1  2  2  3
  2  3  1  0
  2  4  1  0
  4  5  2  3
  5  6  1  0
  5  7  1  0
  7  8  1  0
  8  9  2  0
  9 10  1  0
 10 11  2  0
 11 12  1  0
 11 13  1  0
 13 14  1  0
 13 15  2  0
 15  8  1  0
  1 16  1  0
  3 17  1  0
  3 18  1  0
  6 19  1  0
  6 20  1  0
  7 21  1  0
  9 22  1  0
 10 23  1  0
 15 24  1  0
M  END
>  <loss>  (4) 
0.6573451161384583

>  <score>  (4) 
2.3829407691955566

$$$$
ZJAWVBLMRPEUPW-UHFFFAOYSA-N
     RDKit          3D

 24 24  0  0  0  0  0  0  0  0999 V2000
  119.2836  124.1055   90.8735 N   0  0  0  0  0  0  0  0  0  0  0  0
  120.4446  123.6248   91.1355 C   0  0  0  0  0  0  0  0  0  0  0  0
  120.9893  123.7873   92.3591 N   0  0  0  0  0  0  0  0  0  0  0  0
  121.0722  123.0012   90.1162 N   0  0  0  0  0  0  0  0  0  0  0  0
  121.3294  121.7364   90.1845 C   0  0  0  0  0  0  0  0  0  0  0  0
  121.0428  120.9122   91.2400 N   0  0  0  0  0  0  0  0  0  0  0  0
  121.9571  120.9937   89.2187 N   0  0  0  0  0  0  0  0  0  0  0  0
  123.0119  121.3589   88.3599 C   0  0  0  0  0  0  0  0  0  0  0  0
  124.3231  121.0138   88.7285 C   0  0  0  0  0  0  0  0  0  0  0  0
  125.4143  121.3185   87.9081 C   0  0  0  0  0  0  0  0  0  0  0  0
  125.2136  121.9643   86.6889 C   0  0  0  0  0  0  0  0  0  0  0  0
  126.6021  122.3112   85.7226 Cl  0  0  0  0  0  0  0  0  0  0  0  0
  123.9163  122.2961   86.2929 C   0  0  0  0  0  0  0  0  0  0  0  0
  123.5844  123.0788   84.7870 Cl  0  0  0  0  0  0  0  0  0  0  0  0
  122.8286  121.9872   87.1222 C   0  0  0  0  0  0  0  0  0  0  0  0
  118.8728  123.9784   89.9376 H   0  0  0  0  0  0  0  0  0  0  0  0
  121.9213  123.3994   92.5636 H   0  0  0  0  0  0  0  0  0  0  0  0
  120.4732  124.2992   93.0888 H   0  0  0  0  0  0  0  0  0  0  0  0
  121.2902  119.9133   91.1954 H   0  0  0  0  0  0  0  0  0  0  0  0
  120.5798  121.2911   92.0785 H   0  0  0  0  0  0  0  0  0  0  0  0
  121.6077  120.0315   89.1048 H   0  0  0  0  0  0  0  0  0  0  0  0
  124.4950  120.4932   89.6821 H   0  0  0  0  0  0  0  0  0  0  0  0
  126.4323  121.0482   88.2254 H   0  0  0  0  0  0  0  0  0  0  0  0
  121.8106  122.2437   86.7936 H   0  0  0  0  0  0  0  0  0  0  0  0
  1  2  2  3
  2  3  1  0
  2  4  1  0
  4  5  2  3
  5  6  1  0
  5  7  1  0
  7  8  1  0
  8  9  2  0
  9 10  1  0
 10 11  2  0
 11 12  1  0
 11 13  1  0
 13 14  1  0
 13 15  2  0
 15  8  1  0
  1 16  1  0
  3 17  1  0
  3 18  1  0
  6 19  1  0
  6 20  1  0
  7 21  1  0
  9 22  1  0
 10 23  1  0
 15 24  1  0
M  END
>  <loss>  (5) 
0.581881046295166

>  <score>  (5) 
1.9631468057632446

$$$$
ZJAWVBLMRPEUPW-UHFFFAOYSA-N
     RDKit          3D

 24 24  0  0  0  0  0  0  0  0999 V2000
  120.3986  124.7325   91.3295 N   0  0  0  0  0  0  0  0  0  0  0  0
  120.2900  123.4759   91.0581 C   0  0  0  0  0  0  0  0  0  0  0  0
  119.5754  122.6510   91.8526 N   0  0  0  0  0  0  0  0  0  0  0  0
  120.8451  122.9422   89.9432 N   0  0  0  0  0  0  0  0  0  0  0  0
  121.1510  121.6901   89.8461 C   0  0  0  0  0  0  0  0  0  0  0  0
  120.9547  120.7366   90.8074 N   0  0  0  0  0  0  0  0  0  0  0  0
  121.7030  121.0840   88.7466 N   0  0  0  0  0  0  0  0  0  0  0  0
  122.8720  121.4352   88.0463 C   0  0  0  0  0  0  0  0  0  0  0  0
  122.7472  122.0356   86.7833 C   0  0  0  0  0  0  0  0  0  0  0  0
  123.8735  122.3857   86.0313 C   0  0  0  0  0  0  0  0  0  0  0  0
  125.1521  122.1275   86.5249 C   0  0  0  0  0  0  0  0  0  0  0  0
  126.5010  122.5846   85.5482 Cl  0  0  0  0  0  0  0  0  0  0  0  0
  125.2973  121.5105   87.7693 C   0  0  0  0  0  0  0  0  0  0  0  0
  126.8471  121.1402   88.4416 Cl  0  0  0  0  0  0  0  0  0  0  0  0
  124.1631  121.1628   88.5152 C   0  0  0  0  0  0  0  0  0  0  0  0
  120.9479  125.3472   90.7120 H   0  0  0  0  0  0  0  0  0  0  0  0
  119.4996  121.6503   91.6205 H   0  0  0  0  0  0  0  0  0  0  0  0
  119.1061  123.0222   92.6910 H   0  0  0  0  0  0  0  0  0  0  0  0
  121.2350  119.7615   90.6303 H   0  0  0  0  0  0  0  0  0  0  0  0
  120.5265  120.9940   91.7081 H   0  0  0  0  0  0  0  0  0  0  0  0
  121.1950  120.2638   88.3859 H   0  0  0  0  0  0  0  0  0  0  0  0
  121.7444  122.2346   86.3774 H   0  0  0  0  0  0  0  0  0  0  0  0
  123.7506  122.8653   85.0491 H   0  0  0  0  0  0  0  0  0  0  0  0
  124.2895  120.6660   89.4885 H   0  0  0  0  0  0  0  0  0  0  0  0
  1  2  2  3
  2  3  1  0
  2  4  1  0
  4  5  2  3
  5  6  1  0
  5  7  1  0
  7  8  1  0
  8  9  2  0
  9 10  1  0
 10 11  2  0
 11 12  1  0
 11 13  1  0
 13 14  1  0
 13 15  2  0
 15  8  1  0
  1 16  1  0
  3 17  1  0
  3 18  1  0
  6 19  1  0
  6 20  1  0
  7 21  1  0
  9 22  1  0
 10 23  1  0
 15 24  1  0
M  END
>  <loss>  (6) 
0.6147851347923279

>  <score>  (6) 
1.9504156112670898

$$$$
ZJAWVBLMRPEUPW-UHFFFAOYSA-N
     RDKit          3D

 24 24  0  0  0  0  0  0  0  0999 V2000
  119.1108  123.3820   90.3584 N   0  0  0  0  0  0  0  0  0  0  0  0
  120.1018  123.0848   91.1221 C   0  0  0  0  0  0  0  0  0  0  0  0
  120.6397  124.0252   91.9250 N   0  0  0  0  0  0  0  0  0  0  0  0
  120.5269  121.8022   91.1990 N   0  0  0  0  0  0  0  0  0  0  0  0
  121.1480  121.2669   90.1992 C   0  0  0  0  0  0  0  0  0  0  0  0
  121.4495  119.9401   90.2831 N   0  0  0  0  0  0  0  0  0  0  0  0
  121.5343  121.7656   88.9891 N   0  0  0  0  0  0  0  0  0  0  0  0
  122.8154  121.6803   88.4075 C   0  0  0  0  0  0  0  0  0  0  0  0
  123.9072  121.0765   89.0400 C   0  0  0  0  0  0  0  0  0  0  0  0
  125.1709  121.0591   88.4395 C   0  0  0  0  0  0  0  0  0  0  0  0
  125.3659  121.6580   87.1950 C   0  0  0  0  0  0  0  0  0  0  0  0
  126.9486  121.5950   86.5072 Cl  0  0  0  0  0  0  0  0  0  0  0  0
  124.2911  122.2791   86.5554 C   0  0  0  0  0  0  0  0  0  0  0  0
  124.4482  123.0476   85.0149 Cl  0  0  0  0  0  0  0  0  0  0  0  0
  123.0290  122.2927   87.1631 C   0  0  0  0  0  0  0  0  0  0  0  0
  118.6998  122.6637   89.7450 H   0  0  0  0  0  0  0  0  0  0  0  0
  121.4335  123.7874   92.5367 H   0  0  0  0  0  0  0  0  0  0  0  0
  120.2567  124.9814   91.9266 H   0  0  0  0  0  0  0  0  0  0  0  0
  121.9437  119.4744   89.5087 H   0  0  0  0  0  0  0  0  0  0  0  0
  121.1831  119.4034   91.1209 H   0  0  0  0  0  0  0  0  0  0  0  0
  120.8127  122.2567   88.4423 H   0  0  0  0  0  0  0  0  0  0  0  0
  123.7701  120.6077   90.0256 H   0  0  0  0  0  0  0  0  0  0  0  0
  126.0139  120.5713   88.9509 H   0  0  0  0  0  0  0  0  0  0  0  0
  122.1905  122.7923   86.6559 H   0  0  0  0  0  0  0  0  0  0  0  0
  1  2  2  3
  2  3  1  0
  2  4  1  0
  4  5  2  3
  5  6  1  0
  5  7  1  0
  7  8  1  0
  8  9  2  0
  9 10  1  0
 10 11  2  0
 11 12  1  0
 11 13  1  0
 13 14  1  0
 13 15  2  0
 15  8  1  0
  1 16  1  0
  3 17  1  0
  3 18  1  0
  6 19  1  0
  6 20  1  0
  7 21  1  0
  9 22  1  0
 10 23  1  0
 15 24  1  0
M  END
>  <loss>  (7) 
0.7305248379707336

>  <score>  (7) 
1.7550345659255981

$$$$
ZJAWVBLMRPEUPW-UHFFFAOYSA-N
     RDKit          3D

 24 24  0  0  0  0  0  0  0  0999 V2000
  119.0668  123.1414   91.3391 N   0  0  0  0  0  0  0  0  0  0  0  0
  120.3392  123.3041   91.2944 C   0  0  0  0  0  0  0  0  0  0  0  0
  120.9748  123.9864   92.2694 N   0  0  0  0  0  0  0  0  0  0  0  0
  120.9635  122.7922   90.2128 N   0  0  0  0  0  0  0  0  0  0  0  0
  121.1265  121.5153   90.0963 C   0  0  0  0  0  0  0  0  0  0  0  0
  120.7343  120.5683   91.0047 N   0  0  0  0  0  0  0  0  0  0  0  0
  121.7403  120.8768   89.0503 N   0  0  0  0  0  0  0  0  0  0  0  0
  122.7764  121.3294   88.2106 C   0  0  0  0  0  0  0  0  0  0  0  0
  122.5661  121.9129   86.9568 C   0  0  0  0  0  0  0  0  0  0  0  0
  123.6390  122.3105   86.1489 C   0  0  0  0  0  0  0  0  0  0  0  0
  124.9514  122.1160   86.5761 C   0  0  0  0  0  0  0  0  0  0  0  0
  126.2276  122.6280   85.5323 Cl  0  0  0  0  0  0  0  0  0  0  0  0
  125.1858  121.5147   87.8134 C   0  0  0  0  0  0  0  0  0  0  0  0
  126.7800  121.2225   88.4148 Cl  0  0  0  0  0  0  0  0  0  0  0  0
  124.1061  121.1204   88.6155 C   0  0  0  0  0  0  0  0  0  0  0  0
  118.5878  122.6195   90.5914 H   0  0  0  0  0  0  0  0  0  0  0  0
  121.9961  124.1133   92.2275 H   0  0  0  0  0  0  0  0  0  0  0  0
  120.4387  124.3804   93.0557 H   0  0  0  0  0  0  0  0  0  0  0  0
  120.9111  119.5710   90.8177 H   0  0  0  0  0  0  0  0  0  0  0  0
  120.2626  120.8535   91.8747 H   0  0  0  0  0  0  0  0  0  0  0  0
  121.3934  119.9281   88.8490 H   0  0  0  0  0  0  0  0  0  0  0  0
  121.5371  122.0626   86.5979 H   0  0  0  0  0  0  0  0  0  0  0  0
  123.4450  122.7786   85.1726 H   0  0  0  0  0  0  0  0  0  0  0  0
  124.3037  120.6365   89.5834 H   0  0  0  0  0  0  0  0  0  0  0  0
  1  2  2  3
  2  3  1  0
  2  4  1  0
  4  5  2  3
  5  6  1  0
  5  7  1  0
  7  8  1  0
  8  9  2  0
  9 10  1  0
 10 11  2  0
 11 12  1  0
 11 13  1  0
 13 14  1  0
 13 15  2  0
 15  8  1  0
  1 16  1  0
  3 17  1  0
  3 18  1  0
  6 19  1  0
  6 20  1  0
  7 21  1  0
  9 22  1  0
 10 23  1  0
 15 24  1  0
M  END
>  <loss>  (8) 
0.6726028323173523

>  <score>  (8) 
1.0325597524642944

$$$$
ZJAWVBLMRPEUPW-UHFFFAOYSA-N
     RDKit          3D

 24 24  0  0  0  0  0  0  0  0999 V2000
  119.1022  123.4346   91.3911 N   0  0  0  0  0  0  0  0  0  0  0  0
  120.3384  123.1307   91.5549 C   0  0  0  0  0  0  0  0  0  0  0  0
  120.9254  123.2887   92.7594 N   0  0  0  0  0  0  0  0  0  0  0  0
  120.9923  122.6940   90.4578 N   0  0  0  0  0  0  0  0  0  0  0  0
  121.1012  121.4276   90.2242 C   0  0  0  0  0  0  0  0  0  0  0  0
  120.6222  120.4183   91.0165 N   0  0  0  0  0  0  0  0  0  0  0  0
  121.7368  120.8635   89.1489 N   0  0  0  0  0  0  0  0  0  0  0  0
  122.9395  121.2464   88.5241 C   0  0  0  0  0  0  0  0  0  0  0  0
  124.1517  120.8108   89.0853 C   0  0  0  0  0  0  0  0  0  0  0  0
  125.3814  121.1286   88.4993 C   0  0  0  0  0  0  0  0  0  0  0  0
  125.4231  121.8797   87.3254 C   0  0  0  0  0  0  0  0  0  0  0  0
  126.9726  122.2372   86.6521 Cl  0  0  0  0  0  0  0  0  0  0  0  0
  124.2291  122.3036   86.7385 C   0  0  0  0  0  0  0  0  0  0  0  0
  124.1975  123.2204   85.2726 Cl  0  0  0  0  0  0  0  0  0  0  0  0
  123.0011  121.9807   87.3336 C   0  0  0  0  0  0  0  0  0  0  0  0
  118.6594  123.3118   90.4693 H   0  0  0  0  0  0  0  0  0  0  0  0
  121.9178  123.0431   92.8849 H   0  0  0  0  0  0  0  0  0  0  0  0
  120.3810  123.6549   93.5535 H   0  0  0  0  0  0  0  0  0  0  0  0
  120.7618  119.4361   90.7398 H   0  0  0  0  0  0  0  0  0  0  0  0
  120.1224  120.6416   91.8889 H   0  0  0  0  0  0  0  0  0  0  0  0
  121.2682  120.0427   88.7395 H   0  0  0  0  0  0  0  0  0  0  0  0
  124.1333  120.2072   90.0047 H   0  0  0  0  0  0  0  0  0  0  0  0
  126.3169  120.7856   88.9653 H   0  0  0  0  0  0  0  0  0  0  0  0
  122.0672  122.3110   86.8553 H   0  0  0  0  0  0  0  0  0  0  0  0
  1  2  2  3
  2  3  1  0
  2  4  1  0
  4  5  2  3
  5  6  1  0
  5  7  1  0
  7  8  1  0
  8  9  2  0
  9 10  1  0
 10 11  2  0
 11 12  1  0
 11 13  1  0
 13 14  1  0
 13 15  2  0
 15  8  1  0
  1 16  1  0
  3 17  1  0
  3 18  1  0
  6 19  1  0
  6 20  1  0
  7 21  1  0
  9 22  1  0
 10 23  1  0
 15 24  1  0
M  END
>  <loss>  (9) 
0.7350907921791077

>  <score>  (9) 
1.303412914276123

$$$$
ZJAWVBLMRPEUPW-UHFFFAOYSA-N
     RDKit          3D

 24 24  0  0  0  0  0  0  0  0999 V2000
  120.8171  123.1018   92.3285 N   0  0  0  0  0  0  0  0  0  0  0  0
  120.6541  123.6933   91.1935 C   0  0  0  0  0  0  0  0  0  0  0  0
  120.0733  124.9097   91.1192 N   0  0  0  0  0  0  0  0  0  0  0  0
  121.1008  123.1436   90.0384 N   0  0  0  0  0  0  0  0  0  0  0  0
  121.2563  121.8695   89.8856 C   0  0  0  0  0  0  0  0  0  0  0  0
  120.9882  120.9080   90.8212 N   0  0  0  0  0  0  0  0  0  0  0  0
  121.6921  121.2477   88.7436 N   0  0  0  0  0  0  0  0  0  0  0  0
  122.7922  121.5782   87.9306 C   0  0  0  0  0  0  0  0  0  0  0  0
  122.5517  122.0826   86.6425 C   0  0  0  0  0  0  0  0  0  0  0  0
  123.6053  122.4071   85.7815 C   0  0  0  0  0  0  0  0  0  0  0  0
  124.9255  122.2190   86.1897 C   0  0  0  0  0  0  0  0  0  0  0  0
  126.1803  122.6400   85.0802 Cl  0  0  0  0  0  0  0  0  0  0  0  0
  125.1854  121.6973   87.4588 C   0  0  0  0  0  0  0  0  0  0  0  0
  126.7932  121.4176   88.0311 Cl  0  0  0  0  0  0  0  0  0  0  0  0
  124.1235  121.3745   88.3142 C   0  0  0  0  0  0  0  0  0  0  0  0
  121.2624  122.1738   92.3663 H   0  0  0  0  0  0  0  0  0  0  0  0
  119.9512  125.3671   90.2044 H   0  0  0  0  0  0  0  0  0  0  0  0
  119.7521  125.3803   91.9772 H   0  0  0  0  0  0  0  0  0  0  0  0
  121.1472  119.9149   90.5992 H   0  0  0  0  0  0  0  0  0  0  0  0
  120.6274  121.1773   91.7476 H   0  0  0  0  0  0  0  0  0  0  0  0
  121.1418  120.4313   88.4411 H   0  0  0  0  0  0  0  0  0  0  0  0
  121.5149  122.2252   86.3040 H   0  0  0  0  0  0  0  0  0  0  0  0
  123.3921  122.8113   84.7810 H   0  0  0  0  0  0  0  0  0  0  0  0
  124.3399  120.9527   89.3067 H   0  0  0  0  0  0  0  0  0  0  0  0
  1  2  2  3
  2  3  1  0
  2  4  1  0
  4  5  2  3
  5  6  1  0
  5  7  1  0
  7  8  1  0
  8  9  2  0
  9 10  1  0
 10 11  2  0
 11 12  1  0
 11 13  1  0
 13 14  1  0
 13 15  2  0
 15  8  1  0
  1 16  1  0
  3 17  1  0
  3 18  1  0
  6 19  1  0
  6 20  1  0
  7 21  1  0
  9 22  1  0
 10 23  1  0
 15 24  1  0
M  END
>  <loss>  (10) 
0.595588743686676

>  <score>  (10) 
0.20546531677246094

$$$$
ZJAWVBLMRPEUPW-UHFFFAOYSA-N
     RDKit          3D

 24 24  0  0  0  0  0  0  0  0999 V2000
  119.1362  122.8529   90.4951 N   0  0  0  0  0  0  0  0  0  0  0  0
  120.2676  122.9426   91.0998 C   0  0  0  0  0  0  0  0  0  0  0  0
  120.6608  124.1216   91.6228 N   0  0  0  0  0  0  0  0  0  0  0  0
  121.0065  121.8277   91.3067 N   0  0  0  0  0  0  0  0  0  0  0  0
  121.6053  121.2566   90.3131 C   0  0  0  0  0  0  0  0  0  0  0  0
  122.2377  120.0735   90.5554 N   0  0  0  0  0  0  0  0  0  0  0  0
  121.6926  121.5789   88.9899 N   0  0  0  0  0  0  0  0  0  0  0  0
  122.8637  121.6377   88.2077 C   0  0  0  0  0  0  0  0  0  0  0  0
  124.1088  121.1823   88.6538 C   0  0  0  0  0  0  0  0  0  0  0  0
  125.2515  121.3060   87.8558 C   0  0  0  0  0  0  0  0  0  0  0  0
  125.1683  121.9001   86.5966 C   0  0  0  0  0  0  0  0  0  0  0  0
  126.6148  122.0154   85.6606 Cl  0  0  0  0  0  0  0  0  0  0  0  0
  123.9365  122.3746   86.1407 C   0  0  0  0  0  0  0  0  0  0  0  0
  123.7478  123.1267   84.5957 Cl  0  0  0  0  0  0  0  0  0  0  0  0
  122.7971  122.2474   86.9456 C   0  0  0  0  0  0  0  0  0  0  0  0
  118.8357  121.9524   90.0955 H   0  0  0  0  0  0  0  0  0  0  0  0
  121.5670  124.1935   92.1072 H   0  0  0  0  0  0  0  0  0  0  0  0
  120.0550  124.9503   91.5380 H   0  0  0  0  0  0  0  0  0  0  0  0
  122.7269  119.5852   89.7917 H   0  0  0  0  0  0  0  0  0  0  0  0
  122.2262  119.6678   91.5020 H   0  0  0  0  0  0  0  0  0  0  0  0
  120.8083  121.8030   88.5117 H   0  0  0  0  0  0  0  0  0  0  0  0
  124.1909  120.7193   89.6482 H   0  0  0  0  0  0  0  0  0  0  0  0
  126.2191  120.9334   88.2230 H   0  0  0  0  0  0  0  0  0  0  0  0
  121.8330  122.6323   86.5818 H   0  0  0  0  0  0  0  0  0  0  0  0
  1  2  2  3
  2  3  1  0
  2  4  1  0
  4  5  2  3
  5  6  1  0
  5  7  1  0
  7  8  1  0
  8  9  2  0
  9 10  1  0
 10 11  2  0
 11 12  1  0
 11 13  1  0
 13 14  1  0
 13 15  2  0
 15  8  1  0
  1 16  1  0
  3 17  1  0
  3 18  1  0
  6 19  1  0
  6 20  1  0
  7 21  1  0
  9 22  1  0
 10 23  1  0
 15 24  1  0
M  END
>  <loss>  (11) 
0.6585345268249512

>  <score>  (11) 
0.2596261501312256

$$$$
ZJAWVBLMRPEUPW-UHFFFAOYSA-N
     RDKit          3D

 24 24  0  0  0  0  0  0  0  0999 V2000
  119.1379  122.9829   90.8128 N   0  0  0  0  0  0  0  0  0  0  0  0
  120.2852  122.7830   91.3582 C   0  0  0  0  0  0  0  0  0  0  0  0
  120.9122  123.7909   91.9981 N   0  0  0  0  0  0  0  0  0  0  0  0
  120.8056  121.5339   91.3847 N   0  0  0  0  0  0  0  0  0  0  0  0
  121.3795  121.0513   90.3313 C   0  0  0  0  0  0  0  0  0  0  0  0
  121.7808  119.7492   90.3742 N   0  0  0  0  0  0  0  0  0  0  0  0
  121.6292  121.5843   89.1001 N   0  0  0  0  0  0  0  0  0  0  0  0
  122.8621  121.5988   88.4173 C   0  0  0  0  0  0  0  0  0  0  0  0
  124.0509  121.1091   88.9683 C   0  0  0  0  0  0  0  0  0  0  0  0
  125.2590  121.1892   88.2670 C   0  0  0  0  0  0  0  0  0  0  0  0
  125.2992  121.7731   87.0010 C   0  0  0  0  0  0  0  0  0  0  0  0
  126.8211  121.8339   86.1873 Cl  0  0  0  0  0  0  0  0  0  0  0  0
  124.1252  122.2815   86.4411 C   0  0  0  0  0  0  0  0  0  0  0  0
  124.0889  123.0239   84.8805 Cl  0  0  0  0  0  0  0  0  0  0  0  0
  122.9197  122.1979   87.1497 C   0  0  0  0  0  0  0  0  0  0  0  0
  118.6589  122.2131   90.3241 H   0  0  0  0  0  0  0  0  0  0  0  0
  121.8311  123.6309   92.4350 H   0  0  0  0  0  0  0  0  0  0  0  0
  120.4721  124.7207   92.0500 H   0  0  0  0  0  0  0  0  0  0  0  0
  122.2421  119.3253   89.5566 H   0  0  0  0  0  0  0  0  0  0  0  0
  121.6228  119.1893   91.2241 H   0  0  0  0  0  0  0  0  0  0  0  0
  120.8314  122.0229   88.6184 H   0  0  0  0  0  0  0  0  0  0  0  0
  124.0357  120.6535   89.9695 H   0  0  0  0  0  0  0  0  0  0  0  0
  126.1806  120.7901   88.7158 H   0  0  0  0  0  0  0  0  0  0  0  0
  122.0017  122.6092   86.7044 H   0  0  0  0  0  0  0  0  0  0  0  0
  1  2  2  3
  2  3  1  0
  2  4  1  0
  4  5  2  3
  5  6  1  0
  5  7  1  0
  7  8  1  0
  8  9  2  0
  9 10  1  0
 10 11  2  0
 11 12  1  0
 11 13  1  0
 13 14  1  0
 13 15  2  0
 15  8  1  0
  1 16  1  0
  3 17  1  0
  3 18  1  0
  6 19  1  0
  6 20  1  0
  7 21  1  0
  9 22  1  0
 10 23  1  0
 15 24  1  0
M  END
>  <loss>  (12) 
0.738715410232544

>  <score>  (12) 
0.5512278079986572

$$$$
ZJAWVBLMRPEUPW-UHFFFAOYSA-N
     RDKit          3D

 24 24  0  0  0  0  0  0  0  0999 V2000
  120.7432  124.3106   92.0435 N   0  0  0  0  0  0  0  0  0  0  0  0
  120.3511  123.2362   91.4466 C   0  0  0  0  0  0  0  0  0  0  0  0
  119.3346  122.4978   91.9413 N   0  0  0  0  0  0  0  0  0  0  0  0
  120.9377  122.7995   90.3056 N   0  0  0  0  0  0  0  0  0  0  0  0
  121.1219  121.5479   90.0407 C   0  0  0  0  0  0  0  0  0  0  0  0
  120.7359  120.4941   90.8227 N   0  0  0  0  0  0  0  0  0  0  0  0
  121.7084  121.0482   88.9068 N   0  0  0  0  0  0  0  0  0  0  0  0
  122.9905  121.3078   88.3902 C   0  0  0  0  0  0  0  0  0  0  0  0
  124.1707  120.8751   89.0054 C   0  0  0  0  0  0  0  0  0  0  0  0
  125.4240  121.1373   88.4397 C   0  0  0  0  0  0  0  0  0  0  0  0
  125.5190  121.8322   87.2349 C   0  0  0  0  0  0  0  0  0  0  0  0
  127.0944  122.1236   86.5911 Cl  0  0  0  0  0  0  0  0  0  0  0  0
  124.3533  122.2571   86.5947 C   0  0  0  0  0  0  0  0  0  0  0  0
  124.3810  123.1142   85.0934 Cl  0  0  0  0  0  0  0  0  0  0  0  0
  123.1027  121.9895   87.1676 C   0  0  0  0  0  0  0  0  0  0  0  0
  121.5202  124.8625   91.6529 H   0  0  0  0  0  0  0  0  0  0  0  0
  119.0339  121.6425   91.4524 H   0  0  0  0  0  0  0  0  0  0  0  0
  118.8600  122.7898   92.8075 H   0  0  0  0  0  0  0  0  0  0  0  0
  120.9311  119.5292   90.5197 H   0  0  0  0  0  0  0  0  0  0  0  0
  120.2499  120.6654   91.7146 H   0  0  0  0  0  0  0  0  0  0  0  0
  121.1318  120.3939   88.3588 H   0  0  0  0  0  0  0  0  0  0  0  0
  124.1124  120.3179   89.9520 H   0  0  0  0  0  0  0  0  0  0  0  0
  126.3373  120.7939   88.9477 H   0  0  0  0  0  0  0  0  0  0  0  0
  122.1905  122.3200   86.6491 H   0  0  0  0  0  0  0  0  0  0  0  0
  1  2  2  3
  2  3  1  0
  2  4  1  0
  4  5  2  3
  5  6  1  0
  5  7  1  0
  7  8  1  0
  8  9  2  0
  9 10  1  0
 10 11  2  0
 11 12  1  0
 11 13  1  0
 13 14  1  0
 13 15  2  0
 15  8  1  0
  1 16  1  0
  3 17  1  0
  3 18  1  0
  6 19  1  0
  6 20  1  0
  7 21  1  0
  9 22  1  0
 10 23  1  0
 15 24  1  0
M  END
>  <loss>  (13) 
0.6626277565956116

>  <score>  (13) 
-0.03461050987243652

$$$$
ZJAWVBLMRPEUPW-UHFFFAOYSA-N
     RDKit          3D

 24 24  0  0  0  0  0  0  0  0999 V2000
  119.0847  123.3845   90.4649 N   0  0  0  0  0  0  0  0  0  0  0  0
  120.1098  123.1068   91.1901 C   0  0  0  0  0  0  0  0  0  0  0  0
  120.7192  124.0803   91.8966 N   0  0  0  0  0  0  0  0  0  0  0  0
  120.5028  121.8192   91.3290 N   0  0  0  0  0  0  0  0  0  0  0  0
  121.0686  121.2068   90.3408 C   0  0  0  0  0  0  0  0  0  0  0  0
  121.3372  119.8791   90.4941 N   0  0  0  0  0  0  0  0  0  0  0  0
  121.4194  121.6202   89.0885 N   0  0  0  0  0  0  0  0  0  0  0  0
  122.7088  121.5991   88.5196 C   0  0  0  0  0  0  0  0  0  0  0  0
  123.8149  121.0147   89.1454 C   0  0  0  0  0  0  0  0  0  0  0  0
  125.0847  121.0614   88.5596 C   0  0  0  0  0  0  0  0  0  0  0  0
  125.2712  121.7062   87.3369 C   0  0  0  0  0  0  0  0  0  0  0  0
  126.8623  121.7215   86.6660 Cl  0  0  0  0  0  0  0  0  0  0  0  0
  124.1815  122.3088   86.7045 C   0  0  0  0  0  0  0  0  0  0  0  0
  124.3272  123.1310   85.1910 Cl  0  0  0  0  0  0  0  0  0  0  0  0
  122.9135  122.2580   87.2976 C   0  0  0  0  0  0  0  0  0  0  0  0
  118.6190  122.6410   89.9252 H   0  0  0  0  0  0  0  0  0  0  0  0
  121.5403  123.8580   92.4775 H   0  0  0  0  0  0  0  0  0  0  0  0
  120.3638  125.0461   91.8555 H   0  0  0  0  0  0  0  0  0  0  0  0
  121.7872  119.3533   89.7312 H   0  0  0  0  0  0  0  0  0  0  0  0
  121.0902  119.4018   91.3727 H   0  0  0  0  0  0  0  0  0  0  0  0
  120.6610  121.9868   88.4957 H   0  0  0  0  0  0  0  0  0  0  0  0
  123.6843  120.5101   90.1141 H   0  0  0  0  0  0  0  0  0  0  0  0
  125.9391  120.5879   89.0652 H   0  0  0  0  0  0  0  0  0  0  0  0
  122.0630  122.7434   86.7966 H   0  0  0  0  0  0  0  0  0  0  0  0
  1  2  2  3
  2  3  1  0
  2  4  1  0
  4  5  2  3
  5  6  1  0
  5  7  1  0
  7  8  1  0
  8  9  2  0
  9 10  1  0
 10 11  2  0
 11 12  1  0
 11 13  1  0
 13 14  1  0
 13 15  2  0
 15  8  1  0
  1 16  1  0
  3 17  1  0
  3 18  1  0
  6 19  1  0
  6 20  1  0
  7 21  1  0
  9 22  1  0
 10 23  1  0
 15 24  1  0
M  END
>  <loss>  (14) 
0.7437129020690918

>  <score>  (14) 
-0.013438224792480469

$$$$
ZJAWVBLMRPEUPW-UHFFFAOYSA-N
     RDKit          3D

 24 24  0  0  0  0  0  0  0  0999 V2000
  119.8993  122.3357   91.9680 N   0  0  0  0  0  0  0  0  0  0  0  0
  120.4822  123.2073   91.2276 C   0  0  0  0  0  0  0  0  0  0  0  0
  120.4443  124.5156   91.5546 N   0  0  0  0  0  0  0  0  0  0  0  0
  121.0797  122.7331   90.1141 N   0  0  0  0  0  0  0  0  0  0  0  0
  121.3269  121.4703   89.9929 C   0  0  0  0  0  0  0  0  0  0  0  0
  121.0552  120.5045   90.9253 N   0  0  0  0  0  0  0  0  0  0  0  0
  121.9250  120.8694   88.9160 N   0  0  0  0  0  0  0  0  0  0  0  0
  122.9380  121.3579   88.0683 C   0  0  0  0  0  0  0  0  0  0  0  0
  122.6949  121.9693   86.8338 C   0  0  0  0  0  0  0  0  0  0  0  0
  123.7461  122.4025   86.0158 C   0  0  0  0  0  0  0  0  0  0  0  0
  125.0692  122.2168   86.4127 C   0  0  0  0  0  0  0  0  0  0  0  0
  126.3173  122.7733   85.3577 Cl  0  0  0  0  0  0  0  0  0  0  0  0
  125.3363  121.5884   87.6297 C   0  0  0  0  0  0  0  0  0  0  0  0
  126.9459  121.3049   88.1928 Cl  0  0  0  0  0  0  0  0  0  0  0  0
  124.2781  121.1584   88.4422 C   0  0  0  0  0  0  0  0  0  0  0  0
  119.9321  121.3384   91.7126 H   0  0  0  0  0  0  0  0  0  0  0  0
  120.9141  125.2098   90.9561 H   0  0  0  0  0  0  0  0  0  0  0  0
  119.9456  124.8202   92.4028 H   0  0  0  0  0  0  0  0  0  0  0  0
  121.2922  119.5210   90.7321 H   0  0  0  0  0  0  0  0  0  0  0  0
  120.6140  120.7618   91.8197 H   0  0  0  0  0  0  0  0  0  0  0  0
  121.5841  119.9230   88.6946 H   0  0  0  0  0  0  0  0  0  0  0  0
  121.6571  122.1126   86.4986 H   0  0  0  0  0  0  0  0  0  0  0  0
  123.5263  122.8918   85.0554 H   0  0  0  0  0  0  0  0  0  0  0  0
  124.5016  120.6537   89.3936 H   0  0  0  0  0  0  0  0  0  0  0  0
  1  2  2  3
  2  3  1  0
  2  4  1  0
  4  5  2  3
  5  6  1  0
  5  7  1  0
  7  8  1  0
  8  9  2  0
  9 10  1  0
 10 11  2  0
 11 12  1  0
 11 13  1  0
 13 14  1  0
 13 15  2  0
 15  8  1  0
  1 16  1  0
  3 17  1  0
  3 18  1  0
  6 19  1  0
  6 20  1  0
  7 21  1  0
  9 22  1  0
 10 23  1  0
 15 24  1  0
M  END
>  <loss>  (15) 
0.6221948862075806

>  <score>  (15) 
-1.2957236766815186

$$$$
ZJAWVBLMRPEUPW-UHFFFAOYSA-N
     RDKit          3D

 24 24  0  0  0  0  0  0  0  0999 V2000
  119.9406  122.7836   91.9342 N   0  0  0  0  0  0  0  0  0  0  0  0
  120.5068  123.6146   91.1365 C   0  0  0  0  0  0  0  0  0  0  0  0
  120.5892  124.9221   91.4586 N   0  0  0  0  0  0  0  0  0  0  0  0
  120.9609  123.1024   89.9732 N   0  0  0  0  0  0  0  0  0  0  0  0
  121.2802  121.8527   89.8905 C   0  0  0  0  0  0  0  0  0  0  0  0
  121.2270  120.9398   90.9101 N   0  0  0  0  0  0  0  0  0  0  0  0
  121.7499  121.2168   88.7708 N   0  0  0  0  0  0  0  0  0  0  0  0
  122.7884  121.5945   87.8977 C   0  0  0  0  0  0  0  0  0  0  0  0
  122.5801  122.1042   86.6117 C   0  0  0  0  0  0  0  0  0  0  0  0
  123.6545  122.4281   85.7735 C   0  0  0  0  0  0  0  0  0  0  0  0
  124.9660  122.2320   86.2028 C   0  0  0  0  0  0  0  0  0  0  0  0
  126.2440  122.6512   85.1206 Cl  0  0  0  0  0  0  0  0  0  0  0  0
  125.1978  121.7030   87.4732 C   0  0  0  0  0  0  0  0  0  0  0  0
  126.7904  121.4141   88.0804 Cl  0  0  0  0  0  0  0  0  0  0  0  0
  124.1166  121.3822   88.3055 C   0  0  0  0  0  0  0  0  0  0  0  0
  119.8811  121.7867   91.6821 H   0  0  0  0  0  0  0  0  0  0  0  0
  121.0449  125.5836   90.8139 H   0  0  0  0  0  0  0  0  0  0  0  0
  120.1963  125.2588   92.3492 H   0  0  0  0  0  0  0  0  0  0  0  0
  121.5043  119.9623   90.7412 H   0  0  0  0  0  0  0  0  0  0  0  0
  120.9096  121.2307   91.8458 H   0  0  0  0  0  0  0  0  0  0  0  0
  121.2742  120.3346   88.5334 H   0  0  0  0  0  0  0  0  0  0  0  0
  121.5516  122.2536   86.2514 H   0  0  0  0  0  0  0  0  0  0  0  0
  123.4624  122.8393   84.7715 H   0  0  0  0  0  0  0  0  0  0  0  0
  124.3120  120.9546   89.3000 H   0  0  0  0  0  0  0  0  0  0  0  0
  1  2  2  3
  2  3  1  0
  2  4  1  0
  4  5  2  3
  5  6  1  0
  5  7  1  0
  7  8  1  0
  8  9  2  0
  9 10  1  0
 10 11  2  0
 11 12  1  0
 11 13  1  0
 13 14  1  0
 13 15  2  0
 15  8  1  0
  1 16  1  0
  3 17  1  0
  3 18  1  0
  6 19  1  0
  6 20  1  0
  7 21  1  0
  9 22  1  0
 10 23  1  0
 15 24  1  0
M  END
>  <loss>  (16) 
0.5942422151565552

>  <score>  (16) 
-1.4389142990112305

$$$$
ZJAWVBLMRPEUPW-UHFFFAOYSA-N
     RDKit          3D

 24 24  0  0  0  0  0  0  0  0999 V2000
  119.6231  124.2324   91.1976 N   0  0  0  0  0  0  0  0  0  0  0  0
  120.4561  123.2789   91.4081 C   0  0  0  0  0  0  0  0  0  0  0  0
  120.6620  122.8174   92.6592 N   0  0  0  0  0  0  0  0  0  0  0  0
  121.1156  122.8174   90.3247 N   0  0  0  0  0  0  0  0  0  0  0  0
  121.1251  121.5532   90.0562 C   0  0  0  0  0  0  0  0  0  0  0  0
  120.5284  120.5680   90.7971 N   0  0  0  0  0  0  0  0  0  0  0  0
  121.7547  120.9659   88.9898 N   0  0  0  0  0  0  0  0  0  0  0  0
  122.9826  121.2999   88.3864 C   0  0  0  0  0  0  0  0  0  0  0  0
  124.1690  120.8684   89.0032 C   0  0  0  0  0  0  0  0  0  0  0  0
  125.4215  121.1387   88.4421 C   0  0  0  0  0  0  0  0  0  0  0  0
  125.5125  121.8363   87.2385 C   0  0  0  0  0  0  0  0  0  0  0  0
  127.0880  122.1369   86.5984 Cl  0  0  0  0  0  0  0  0  0  0  0  0
  124.3449  122.2547   86.5971 C   0  0  0  0  0  0  0  0  0  0  0  0
  124.3745  123.1062   85.0923 Cl  0  0  0  0  0  0  0  0  0  0  0  0
  123.0937  121.9797   87.1674 C   0  0  0  0  0  0  0  0  0  0  0  0
  119.4700  124.5805   90.2404 H   0  0  0  0  0  0  0  0  0  0  0  0
  121.3317  122.0520   92.8220 H   0  0  0  0  0  0  0  0  0  0  0  0
  120.1494  123.2305   93.4513 H   0  0  0  0  0  0  0  0  0  0  0  0
  120.5947  119.5853   90.4957 H   0  0  0  0  0  0  0  0  0  0  0  0
  120.0133  120.8098   91.6557 H   0  0  0  0  0  0  0  0  0  0  0  0
  121.2592  120.1664   88.5700 H   0  0  0  0  0  0  0  0  0  0  0  0
  124.1116  120.3064   89.9470 H   0  0  0  0  0  0  0  0  0  0  0  0
  126.3360  120.8003   88.9513 H   0  0  0  0  0  0  0  0  0  0  0  0
  122.1810  122.3047   86.6466 H   0  0  0  0  0  0  0  0  0  0  0  0
  1  2  2  3
  2  3  1  0
  2  4  1  0
  4  5  2  3
  5  6  1  0
  5  7  1  0
  7  8  1  0
  8  9  2  0
  9 10  1  0
 10 11  2  0
 11 12  1  0
 11 13  1  0
 13 14  1  0
 13 15  2  0
 15  8  1  0
  1 16  1  0
  3 17  1  0
  3 18  1  0
  6 19  1  0
  6 20  1  0
  7 21  1  0
  9 22  1  0
 10 23  1  0
 15 24  1  0
M  END
>  <loss>  (17) 
0.6629651784896851

>  <score>  (17) 
-3.159579277038574

$$$$
ZJAWVBLMRPEUPW-UHFFFAOYSA-N
     RDKit          3D

 24 24  0  0  0  0  0  0  0  0999 V2000
  119.8462  122.1720   92.1305 N   0  0  0  0  0  0  0  0  0  0  0  0
  120.5912  123.0393   91.5474 C   0  0  0  0  0  0  0  0  0  0  0  0
  120.7271  124.2784   92.0638 N   0  0  0  0  0  0  0  0  0  0  0  0
  121.1755  122.6421   90.3974 N   0  0  0  0  0  0  0  0  0  0  0  0
  121.3153  121.3838   90.1374 C   0  0  0  0  0  0  0  0  0  0  0  0
  120.9381  120.3470   90.9487 N   0  0  0  0  0  0  0  0  0  0  0  0
  121.8880  120.8584   89.0085 N   0  0  0  0  0  0  0  0  0  0  0  0
  123.0594  121.2573   88.3361 C   0  0  0  0  0  0  0  0  0  0  0  0
  124.3011  120.9094   88.8941 C   0  0  0  0  0  0  0  0  0  0  0  0
  125.5032  121.2470   88.2635 C   0  0  0  0  0  0  0  0  0  0  0  0
  125.4874  121.9294   87.0479 C   0  0  0  0  0  0  0  0  0  0  0  0
  127.0054  122.3157   86.3208 Cl  0  0  0  0  0  0  0  0  0  0  0  0
  124.2639  122.2649   86.4645 C   0  0  0  0  0  0  0  0  0  0  0  0
  124.1616  123.0924   84.9494 Cl  0  0  0  0  0  0  0  0  0  0  0  0
  123.0640  121.9229   87.1043 C   0  0  0  0  0  0  0  0  0  0  0  0
  119.7462  121.2276   91.7317 H   0  0  0  0  0  0  0  0  0  0  0  0
  121.3264  124.9703   91.5915 H   0  0  0  0  0  0  0  0  0  0  0  0
  120.2316  124.5324   92.9303 H   0  0  0  0  0  0  0  0  0  0  0  0
  121.0942  119.3744   90.6477 H   0  0  0  0  0  0  0  0  0  0  0  0
  120.4983  120.5398   91.8599 H   0  0  0  0  0  0  0  0  0  0  0  0
  121.3910  120.0577   88.5927 H   0  0  0  0  0  0  0  0  0  0  0  0
  124.3284  120.3602   89.8468 H   0  0  0  0  0  0  0  0  0  0  0  0
  126.4624  120.9736   88.7274 H   0  0  0  0  0  0  0  0  0  0  0  0
  122.1067  122.1829   86.6288 H   0  0  0  0  0  0  0  0  0  0  0  0
  1  2  2  3
  2  3  1  0
  2  4  1  0
  4  5  2  3
  5  6  1  0
  5  7  1  0
  7  8  1  0
  8  9  2  0
  9 10  1  0
 10 11  2  0
 11 12  1  0
 11 13  1  0
 13 14  1  0
 13 15  2  0
 15  8  1  0
  1 16  1  0
  3 17  1  0
  3 18  1  0
  6 19  1  0
  6 20  1  0
  7 21  1  0
  9 22  1  0
 10 23  1  0
 15 24  1  0
M  END
>  <loss>  (18) 
0.6642405986785889

>  <score>  (18) 
-3.344883680343628

$$$$
ZJAWVBLMRPEUPW-UHFFFAOYSA-N
     RDKit          3D

 24 24  0  0  0  0  0  0  0  0999 V2000
  120.5351  122.7365   92.4913 N   0  0  0  0  0  0  0  0  0  0  0  0
  120.4532  123.3480   91.3582 C   0  0  0  0  0  0  0  0  0  0  0  0
  119.8633  124.5583   91.2610 N   0  0  0  0  0  0  0  0  0  0  0  0
  120.9964  122.8264   90.2317 N   0  0  0  0  0  0  0  0  0  0  0  0
  121.1087  121.5538   90.0350 C   0  0  0  0  0  0  0  0  0  0  0  0
  120.6972  120.5679   90.8895 N   0  0  0  0  0  0  0  0  0  0  0  0
  121.6364  120.9603   88.9169 N   0  0  0  0  0  0  0  0  0  0  0  0
  122.7636  121.3467   88.1684 C   0  0  0  0  0  0  0  0  0  0  0  0
  122.5676  121.9373   86.9098 C   0  0  0  0  0  0  0  0  0  0  0  0
  123.6502  122.3210   86.1113 C   0  0  0  0  0  0  0  0  0  0  0  0
  124.9556  122.1072   86.5530 C   0  0  0  0  0  0  0  0  0  0  0  0
  126.2478  122.6042   85.5205 Cl  0  0  0  0  0  0  0  0  0  0  0  0
  125.1717  121.5006   87.7922 C   0  0  0  0  0  0  0  0  0  0  0  0
  126.7591  121.1845   88.4016 Cl  0  0  0  0  0  0  0  0  0  0  0  0
  124.0811  121.1190   88.5849 C   0  0  0  0  0  0  0  0  0  0  0  0
  120.9888  121.8134   92.5468 H   0  0  0  0  0  0  0  0  0  0  0  0
  119.8069  125.0320   90.3481 H   0  0  0  0  0  0  0  0  0  0  0  0
  119.4695  125.0082   92.0998 H   0  0  0  0  0  0  0  0  0  0  0  0
  120.8334  119.5784   90.6380 H   0  0  0  0  0  0  0  0  0  0  0  0
  120.2512  120.8151   91.7845 H   0  0  0  0  0  0  0  0  0  0  0  0
  121.1426  120.1213   88.5808 H   0  0  0  0  0  0  0  0  0  0  0  0
  121.5430  122.1014   86.5446 H   0  0  0  0  0  0  0  0  0  0  0  0
  123.4715  122.7921   85.1335 H   0  0  0  0  0  0  0  0  0  0  0  0
  124.2634  120.6309   89.5536 H   0  0  0  0  0  0  0  0  0  0  0  0
  1  2  2  3
  2  3  1  0
  2  4  1  0
  4  5  2  3
  5  6  1  0
  5  7  1  0
  7  8  1  0
  8  9  2  0
  9 10  1  0
 10 11  2  0
 11 12  1  0
 11 13  1  0
 13 14  1  0
 13 15  2  0
 15  8  1  0
  1 16  1  0
  3 17  1  0
  3 18  1  0
  6 19  1  0
  6 20  1  0
  7 21  1  0
  9 22  1  0
 10 23  1  0
 15 24  1  0
M  END
>  <loss>  (19) 
0.6758344173431396

>  <score>  (19) 
-3.5666356086730957

$$$$
ZJAWVBLMRPEUPW-UHFFFAOYSA-N
     RDKit          3D

 24 24  0  0  0  0  0  0  0  0999 V2000
  120.2224  122.4404   92.2539 N   0  0  0  0  0  0  0  0  0  0  0  0
  120.5283  123.2258   91.2771 C   0  0  0  0  0  0  0  0  0  0  0  0
  120.3800  124.5632   91.3862 N   0  0  0  0  0  0  0  0  0  0  0  0
  121.0547  122.7485   90.1234 N   0  0  0  0  0  0  0  0  0  0  0  0
  121.2974  121.4933   89.9333 C   0  0  0  0  0  0  0  0  0  0  0  0
  121.0545  120.4827   90.8229 N   0  0  0  0  0  0  0  0  0  0  0  0
  121.8172  120.9429   88.7897 N   0  0  0  0  0  0  0  0  0  0  0  0
  122.9264  121.3705   88.0366 C   0  0  0  0  0  0  0  0  0  0  0  0
  122.7016  121.9958   86.7998 C   0  0  0  0  0  0  0  0  0  0  0  0
  123.7654  122.4214   85.9975 C   0  0  0  0  0  0  0  0  0  0  0  0
  125.0808  122.2158   86.4128 C   0  0  0  0  0  0  0  0  0  0  0  0
  126.3487  122.7653   85.3770 Cl  0  0  0  0  0  0  0  0  0  0  0  0
  125.3257  121.5754   87.6295 C   0  0  0  0  0  0  0  0  0  0  0  0
  126.9271  121.2670   88.2052 Cl  0  0  0  0  0  0  0  0  0  0  0  0
  124.2536  121.1519   88.4263 C   0  0  0  0  0  0  0  0  0  0  0  0
  120.3420  121.4223   92.1530 H   0  0  0  0  0  0  0  0  0  0  0  0
  120.6293  125.1752   90.5961 H   0  0  0  0  0  0  0  0  0  0  0  0
  120.0176  124.9716   92.2596 H   0  0  0  0  0  0  0  0  0  0  0  0
  121.2854  119.5104   90.5734 H   0  0  0  0  0  0  0  0  0  0  0  0
  120.6407  120.6942   91.7421 H   0  0  0  0  0  0  0  0  0  0  0  0
  121.3317  120.1065   88.4353 H   0  0  0  0  0  0  0  0  0  0  0  0
  121.6690  122.1541   86.4552 H   0  0  0  0  0  0  0  0  0  0  0  0
  123.5642  122.9191   85.0374 H   0  0  0  0  0  0  0  0  0  0  0  0
  124.4586  120.6375   89.3767 H   0  0  0  0  0  0  0  0  0  0  0  0
  1  2  2  3
  2  3  1  0
  2  4  1  0
  4  5  2  3
  5  6  1  0
  5  7  1  0
  7  8  1  0
  8  9  2  0
  9 10  1  0
 10 11  2  0
 11 12  1  0
 11 13  1  0
 13 14  1  0
 13 15  2  0
 15  8  1  0
  1 16  1  0
  3 17  1  0
  3 18  1  0
  6 19  1  0
  6 20  1  0
  7 21  1  0
  9 22  1  0
 10 23  1  0
 15 24  1  0
M  END
>  <loss>  (20) 
0.6229350566864014

>  <score>  (20) 
-4.28374719619751

$$$$
ZJAWVBLMRPEUPW-UHFFFAOYSA-N
     RDKit          3D

 24 24  0  0  0  0  0  0  0  0999 V2000
  121.1567  124.5458   91.8733 N   0  0  0  0  0  0  0  0  0  0  0  0
  120.5119  123.6161   91.2534 C   0  0  0  0  0  0  0  0  0  0  0  0
  119.2809  123.2359   91.6578 N   0  0  0  0  0  0  0  0  0  0  0  0
  121.0359  122.9801   90.1775 N   0  0  0  0  0  0  0  0  0  0  0  0
  121.3681  121.7312   90.1883 C   0  0  0  0  0  0  0  0  0  0  0  0
  121.2169  120.8668   91.2376 N   0  0  0  0  0  0  0  0  0  0  0  0
  121.9016  121.0363   89.1339 N   0  0  0  0  0  0  0  0  0  0  0  0
  123.0271  121.3501   88.3509 C   0  0  0  0  0  0  0  0  0  0  0  0
  124.3354  121.0075   88.7108 C   0  0  0  0  0  0  0  0  0  0  0  0
  125.4222  121.3207   87.8860 C   0  0  0  0  0  0  0  0  0  0  0  0
  125.2169  121.9767   86.6732 C   0  0  0  0  0  0  0  0  0  0  0  0
  126.5997  122.3345   85.7029 Cl  0  0  0  0  0  0  0  0  0  0  0  0
  123.9180  122.3114   86.2858 C   0  0  0  0  0  0  0  0  0  0  0  0
  123.5745  123.1149   84.7941 Cl  0  0  0  0  0  0  0  0  0  0  0  0
  122.8357  121.9934   87.1173 C   0  0  0  0  0  0  0  0  0  0  0  0
  122.0949  124.8241   91.5520 H   0  0  0  0  0  0  0  0  0  0  0  0
  118.7796  122.4919   91.1518 H   0  0  0  0  0  0  0  0  0  0  0  0
  118.8434  123.6898   92.4723 H   0  0  0  0  0  0  0  0  0  0  0  0
  121.5154  119.8855   91.1437 H   0  0  0  0  0  0  0  0  0  0  0  0
  120.8045  121.1972   92.1217 H   0  0  0  0  0  0  0  0  0  0  0  0
  121.4118  120.1663   88.8806 H   0  0  0  0  0  0  0  0  0  0  0  0
  124.5132  120.4818   89.6606 H   0  0  0  0  0  0  0  0  0  0  0  0
  126.4418  121.0481   88.1959 H   0  0  0  0  0  0  0  0  0  0  0  0
  121.8158  122.2527   86.7972 H   0  0  0  0  0  0  0  0  0  0  0  0
  1  2  2  3
  2  3  1  0
  2  4  1  0
  4  5  2  3
  5  6  1  0
  5  7  1  0
  7  8  1  0
  8  9  2  0
  9 10  1  0
 10 11  2  0
 11 12  1  0
 11 13  1  0
 13 14  1  0
 13 15  2  0
 15  8  1  0
  1 16  1  0
  3 17  1  0
  3 18  1  0
  6 19  1  0
  6 20  1  0
  7 21  1  0
  9 22  1  0
 10 23  1  0
 15 24  1  0
M  END
>  <loss>  (21) 
0.5800573825836182

>  <score>  (21) 
-5.952826499938965

$$$$
ZJAWVBLMRPEUPW-UHFFFAOYSA-N
     RDKit          3D

 24 24  0  0  0  0  0  0  0  0999 V2000
  120.2539  122.3743   92.6688 N   0  0  0  0  0  0  0  0  0  0  0  0
  120.3980  123.1258   91.6300 C   0  0  0  0  0  0  0  0  0  0  0  0
  119.9283  124.3917   91.6175 N   0  0  0  0  0  0  0  0  0  0  0  0
  121.0198  122.6833   90.5101 N   0  0  0  0  0  0  0  0  0  0  0  0
  121.0559  121.4374   90.1681 C   0  0  0  0  0  0  0  0  0  0  0  0
  120.4624  120.4016   90.8358 N   0  0  0  0  0  0  0  0  0  0  0  0
  121.6685  120.9323   89.0505 N   0  0  0  0  0  0  0  0  0  0  0  0
  122.9385  121.2364   88.5283 C   0  0  0  0  0  0  0  0  0  0  0  0
  124.1345  120.7964   89.1066 C   0  0  0  0  0  0  0  0  0  0  0  0
  125.3749  121.1050   88.5358 C   0  0  0  0  0  0  0  0  0  0  0  0
  125.4408  121.8548   87.3624 C   0  0  0  0  0  0  0  0  0  0  0  0
  127.0016  122.2014   86.7105 Cl  0  0  0  0  0  0  0  0  0  0  0  0
  124.2590  122.2883   86.7585 C   0  0  0  0  0  0  0  0  0  0  0  0
  124.2507  123.2123   85.2973 Cl  0  0  0  0  0  0  0  0  0  0  0  0
  123.0215  121.9741   87.3362 C   0  0  0  0  0  0  0  0  0  0  0  0
  120.6180  121.4108   92.6619 H   0  0  0  0  0  0  0  0  0  0  0  0
  120.0516  124.9785   90.7801 H   0  0  0  0  0  0  0  0  0  0  0  0
  119.4468  124.7705   92.4455 H   0  0  0  0  0  0  0  0  0  0  0  0
  120.5517  119.4398   90.4781 H   0  0  0  0  0  0  0  0  0  0  0  0
  119.9263  120.5833   91.6963 H   0  0  0  0  0  0  0  0  0  0  0  0
  121.1249  120.2355   88.5215 H   0  0  0  0  0  0  0  0  0  0  0  0
  124.0992  120.1963   90.0278 H   0  0  0  0  0  0  0  0  0  0  0  0
  126.3010  120.7545   89.0149 H   0  0  0  0  0  0  0  0  0  0  0  0
  122.0966  122.3122   86.8460 H   0  0  0  0  0  0  0  0  0  0  0  0
  1  2  2  3
  2  3  1  0
  2  4  1  0
  4  5  2  3
  5  6  1  0
  5  7  1  0
  7  8  1  0
  8  9  2  0
  9 10  1  0
 10 11  2  0
 11 12  1  0
 11 13  1  0
 13 14  1  0
 13 15  2  0
 15  8  1  0
  1 16  1  0
  3 17  1  0
  3 18  1  0
  6 19  1  0
  6 20  1  0
  7 21  1  0
  9 22  1  0
 10 23  1  0
 15 24  1  0
M  END
>  <loss>  (22) 
0.7390192151069641

>  <score>  (22) 
-6.031733512878418

$$$$
ZJAWVBLMRPEUPW-UHFFFAOYSA-N
     RDKit          3D

 24 24  0  0  0  0  0  0  0  0999 V2000
  120.9871  124.7665   91.6007 N   0  0  0  0  0  0  0  0  0  0  0  0
  120.6368  123.5702   91.2946 C   0  0  0  0  0  0  0  0  0  0  0  0
  119.9268  122.8230   92.1651 N   0  0  0  0  0  0  0  0  0  0  0  0
  121.0548  123.1205   90.0926 N   0  0  0  0  0  0  0  0  0  0  0  0
  121.2910  121.8627   89.9121 C   0  0  0  0  0  0  0  0  0  0  0  0
  121.1789  120.8793   90.8588 N   0  0  0  0  0  0  0  0  0  0  0  0
  121.7165  121.2857   88.7439 N   0  0  0  0  0  0  0  0  0  0  0  0
  122.8211  121.6152   87.9347 C   0  0  0  0  0  0  0  0  0  0  0  0
  122.7134  122.0942   86.6248 C   0  0  0  0  0  0  0  0  0  0  0  0
  123.8500  122.3701   85.8542 C   0  0  0  0  0  0  0  0  0  0  0  0
  125.1240  122.1555   86.3773 C   0  0  0  0  0  0  0  0  0  0  0  0
  126.4826  122.5152   85.3748 Cl  0  0  0  0  0  0  0  0  0  0  0  0
  125.2557  121.6561   87.6737 C   0  0  0  0  0  0  0  0  0  0  0  0
  126.7957  121.3470   88.3959 Cl  0  0  0  0  0  0  0  0  0  0  0  0
  124.1128  121.3833   88.4379 C   0  0  0  0  0  0  0  0  0  0  0  0
  121.5291  125.3316   90.9315 H   0  0  0  0  0  0  0  0  0  0  0  0
  119.6488  121.8638   91.9131 H   0  0  0  0  0  0  0  0  0  0  0  0
  119.6626  123.2119   93.0815 H   0  0  0  0  0  0  0  0  0  0  0  0
  121.3910  119.9017   90.6136 H   0  0  0  0  0  0  0  0  0  0  0  0
  120.8824  121.1174   91.8161 H   0  0  0  0  0  0  0  0  0  0  0  0
  121.1456  120.4964   88.4094 H   0  0  0  0  0  0  0  0  0  0  0  0
  121.7158  122.2576   86.1912 H   0  0  0  0  0  0  0  0  0  0  0  0
  123.7367  122.7582   84.8312 H   0  0  0  0  0  0  0  0  0  0  0  0
  124.2294  120.9786   89.4541 H   0  0  0  0  0  0  0  0  0  0  0  0
  1  2  2  3
  2  3  1  0
  2  4  1  0
  4  5  2  3
  5  6  1  0
  5  7  1  0
  7  8  1  0
  8  9  2  0
  9 10  1  0
 10 11  2  0
 11 12  1  0
 11 13  1  0
 13 14  1  0
 13 15  2  0
 15  8  1  0
  1 16  1  0
  3 17  1  0
  3 18  1  0
  6 19  1  0
  6 20  1  0
  7 21  1  0
  9 22  1  0
 10 23  1  0
 15 24  1  0
M  END
>  <loss>  (23) 
0.593973696231842

>  <score>  (23) 
-6.964446067810059

$$$$
ZJAWVBLMRPEUPW-UHFFFAOYSA-N
     RDKit          3D

 24 24  0  0  0  0  0  0  0  0999 V2000
  121.2490  124.6376   91.9201 N   0  0  0  0  0  0  0  0  0  0  0  0
  120.7289  123.5794   91.3963 C   0  0  0  0  0  0  0  0  0  0  0  0
  119.7368  122.9091   92.0200 N   0  0  0  0  0  0  0  0  0  0  0  0
  121.1205  123.1256   90.1810 N   0  0  0  0  0  0  0  0  0  0  0  0
  121.3041  121.8710   89.9300 C   0  0  0  0  0  0  0  0  0  0  0  0
  121.1221  120.8391   90.8096 N   0  0  0  0  0  0  0  0  0  0  0  0
  121.6879  121.3441   88.7234 N   0  0  0  0  0  0  0  0  0  0  0  0
  122.8439  121.6251   87.9718 C   0  0  0  0  0  0  0  0  0  0  0  0
  122.6961  122.0943   86.6568 C   0  0  0  0  0  0  0  0  0  0  0  0
  123.8086  122.3689   85.8546 C   0  0  0  0  0  0  0  0  0  0  0  0
  125.0961  122.1649   86.3505 C   0  0  0  0  0  0  0  0  0  0  0  0
  126.4271  122.5238   85.3101 Cl  0  0  0  0  0  0  0  0  0  0  0  0
  125.2640  121.6774   87.6483 C   0  0  0  0  0  0  0  0  0  0  0  0
  126.8260  121.3806   88.3287 Cl  0  0  0  0  0  0  0  0  0  0  0  0
  124.1435  121.4045   88.4443 C   0  0  0  0  0  0  0  0  0  0  0  0
  122.0052  125.1364   91.4300 H   0  0  0  0  0  0  0  0  0  0  0  0
  119.3334  122.0661   91.5870 H   0  0  0  0  0  0  0  0  0  0  0  0
  119.3833  123.2408   92.9288 H   0  0  0  0  0  0  0  0  0  0  0  0
  121.2967  119.8694   90.5092 H   0  0  0  0  0  0  0  0  0  0  0  0
  120.8106  121.0318   91.7723 H   0  0  0  0  0  0  0  0  0  0  0  0
  121.0453  120.6514   88.3133 H   0  0  0  0  0  0  0  0  0  0  0  0
  121.6860  122.2489   86.2495 H   0  0  0  0  0  0  0  0  0  0  0  0
  123.6678  122.7464   84.8310 H   0  0  0  0  0  0  0  0  0  0  0  0
  124.2877  121.0091   89.4606 H   0  0  0  0  0  0  0  0  0  0  0  0
  1  2  2  3
  2  3  1  0
  2  4  1  0
  4  5  2  3
  5  6  1  0
  5  7  1  0
  7  8  1  0
  8  9  2  0
  9 10  1  0
 10 11  2  0
 11 12  1  0
 11 13  1  0
 13 14  1  0
 13 15  2  0
 15  8  1  0
  1 16  1  0
  3 17  1  0
  3 18  1  0
  6 19  1  0
  6 20  1  0
  7 21  1  0
  9 22  1  0
 10 23  1  0
 15 24  1  0
M  END
>  <loss>  (24) 
0.5944074392318726

>  <score>  (24) 
-7.644489288330078

$$$$
ZJAWVBLMRPEUPW-UHFFFAOYSA-N
     RDKit          3D

 24 24  0  0  0  0  0  0  0  0999 V2000
  120.4846  122.2168   92.5960 N   0  0  0  0  0  0  0  0  0  0  0  0
  120.6599  123.0264   91.6069 C   0  0  0  0  0  0  0  0  0  0  0  0
  120.2735  124.3177   91.6889 N   0  0  0  0  0  0  0  0  0  0  0  0
  121.2327  122.6223   90.4471 N   0  0  0  0  0  0  0  0  0  0  0  0
  121.2686  121.3865   90.0704 C   0  0  0  0  0  0  0  0  0  0  0  0
  120.7216  120.3251   90.7378 N   0  0  0  0  0  0  0  0  0  0  0  0
  121.8330  120.9196   88.9117 N   0  0  0  0  0  0  0  0  0  0  0  0
  123.0726  121.2549   88.3379 C   0  0  0  0  0  0  0  0  0  0  0  0
  124.3034  120.9174   88.9119 C   0  0  0  0  0  0  0  0  0  0  0  0
  125.5121  121.2525   88.2902 C   0  0  0  0  0  0  0  0  0  0  0  0
  125.5106  121.9259   87.0696 C   0  0  0  0  0  0  0  0  0  0  0  0
  127.0353  122.3103   86.3560 Cl  0  0  0  0  0  0  0  0  0  0  0  0
  124.2938  122.2560   86.4700 C   0  0  0  0  0  0  0  0  0  0  0  0
  124.2023  123.0802   84.9530 Cl  0  0  0  0  0  0  0  0  0  0  0  0
  123.0885  121.9160   87.0989 C   0  0  0  0  0  0  0  0  0  0  0  0
  120.7851  121.2348   92.5171 H   0  0  0  0  0  0  0  0  0  0  0  0
  120.4207  124.9510   90.8901 H   0  0  0  0  0  0  0  0  0  0  0  0
  119.8316  124.6693   92.5503 H   0  0  0  0  0  0  0  0  0  0  0  0
  120.8060  119.3744   90.3506 H   0  0  0  0  0  0  0  0  0  0  0  0
  120.2253  120.4766   91.6275 H   0  0  0  0  0  0  0  0  0  0  0  0
  121.2735  120.2295   88.3905 H   0  0  0  0  0  0  0  0  0  0  0  0
  124.3215  120.3782   89.8706 H   0  0  0  0  0  0  0  0  0  0  0  0
  126.4664  120.9834   88.7666 H   0  0  0  0  0  0  0  0  0  0  0  0
  122.1358  122.1720   86.6124 H   0  0  0  0  0  0  0  0  0  0  0  0
  1  2  2  3
  2  3  1  0
  2  4  1  0
  4  5  2  3
  5  6  1  0
  5  7  1  0
  7  8  1  0
  8  9  2  0
  9 10  1  0
 10 11  2  0
 11 12  1  0
 11 13  1  0
 13 14  1  0
 13 15  2  0
 15  8  1  0
  1 16  1  0
  3 17  1  0
  3 18  1  0
  6 19  1  0
  6 20  1  0
  7 21  1  0
  9 22  1  0
 10 23  1  0
 15 24  1  0
M  END
>  <loss>  (25) 
0.6643479466438293

>  <score>  (25) 
-11.900922775268555

$$$$
