ZNPYZUWOLOJVPJ-UHFFFAOYSA-N
     RDKit          3D

 25 25  0  0  0  0  0  0  0  0999 V2000
  121.2119  119.7921   87.3771 C   0  0  0  0  0  0  0  0  0  0  0  0
  121.4100  121.1975   87.4934 O   0  0  0  0  0  0  0  0  0  0  0  0
  122.7086  121.6551   87.4839 C   0  0  0  0  0  0  0  0  0  0  0  0
  123.6808  121.3201   88.4301 C   0  0  0  0  0  0  0  0  0  0  0  0
  124.9716  121.8543   88.3089 C   0  0  0  0  0  0  0  0  0  0  0  0
  125.9969  121.5050   89.3012 N   0  0  0  0  0  4  0  0  0  0  0  0
  125.8131  120.4861   89.9825 O   0  0  0  0  0  0  0  0  0  0  0  0
  126.9833  122.2478   89.3987 O   0  0  0  0  0  1  0  0  0  0  0  0
  125.2942  122.7154   87.2546 C   0  0  0  0  0  0  0  0  0  0  0  0
  124.3190  123.0483   86.3100 C   0  0  0  0  0  0  0  0  0  0  0  0
  123.0279  122.5254   86.4152 C   0  0  0  0  0  0  0  0  0  0  0  0
  121.9864  122.8105   85.5052 N   0  0  0  0  0  0  0  0  0  0  0  0
  121.9441  122.5988   84.1269 C   0  0  0  0  0  0  0  0  0  0  0  0
  122.7618  121.9049   83.5213 O   0  0  0  0  0  0  0  0  0  0  0  0
  120.7644  123.3196   83.4206 C   0  0  0  0  0  0  0  0  0  0  0  0
  120.9144  125.0772   83.7155 Cl  0  0  0  0  0  0  0  0  0  0  0  0
  120.7680  123.0074   81.6701 Cl  0  0  0  0  0  0  0  0  0  0  0  0
  119.2334  122.7294   84.1318 Cl  0  0  0  0  0  0  0  0  0  0  0  0
  121.1491  119.3464   88.3808 H   0  0  0  0  0  0  0  0  0  0  0  0
  120.2775  119.5975   86.8304 H   0  0  0  0  0  0  0  0  0  0  0  0
  122.0562  119.3468   86.8304 H   0  0  0  0  0  0  0  0  0  0  0  0
  123.4357  120.6437   89.2622 H   0  0  0  0  0  0  0  0  0  0  0  0
  126.3101  123.1286   87.1695 H   0  0  0  0  0  0  0  0  0  0  0  0
  124.5696  123.7251   85.4798 H   0  0  0  0  0  0  0  0  0  0  0  0
  121.1414  123.2329   85.9156 H   0  0  0  0  0  0  0  0  0  0  0  0
  1  2  1  0
  2  3  1  0
  3  4  2  0
  4  5  1  0
  5  6  1  0
  6  7  2  0
  6  8  1  0
  5  9  2  0
  9 10  1  0
 10 11  2  0
 11 12  1  0
 12 13  1  0
 13 14  2  0
 13 15  1  0
 15 16  1  0
 15 17  1  0
 15 18  1  0
 11  3  1  0
  1 19  1  0
  1 20  1  0
  1 21  1  0
  4 22  1  0
  9 23  1  0
 10 24  1  0
 12 25  1  0
M  CHG  2   6   1   8  -1
M  END
>  <loss>  (1) 
0.6963196992874146

>  <score>  (1) 
3.2979300022125244

$$$$
ZNPYZUWOLOJVPJ-UHFFFAOYSA-N
     RDKit          3D

 25 25  0  0  0  0  0  0  0  0999 V2000
  121.2218  119.8093   87.2053 C   0  0  0  0  0  0  0  0  0  0  0  0
  121.4257  121.2123   87.3394 O   0  0  0  0  0  0  0  0  0  0  0  0
  122.7270  121.6605   87.3766 C   0  0  0  0  0  0  0  0  0  0  0  0
  123.6578  121.3307   88.3653 C   0  0  0  0  0  0  0  0  0  0  0  0
  124.9564  121.8542   88.2897 C   0  0  0  0  0  0  0  0  0  0  0  0
  125.9384  121.5102   89.3267 N   0  0  0  0  0  4  0  0  0  0  0  0
  125.7358  120.4839   89.9914 O   0  0  0  0  0  0  0  0  0  0  0  0
  126.9094  122.2645   89.4758 O   0  0  0  0  0  1  0  0  0  0  0  0
  125.3276  122.6997   87.2388 C   0  0  0  0  0  0  0  0  0  0  0  0
  124.3938  123.0275   86.2516 C   0  0  0  0  0  0  0  0  0  0  0  0
  123.0955  122.5150   86.3111 C   0  0  0  0  0  0  0  0  0  0  0  0
  122.0936  122.7960   85.3564 N   0  0  0  0  0  0  0  0  0  0  0  0
  122.1309  122.6301   83.9717 C   0  0  0  0  0  0  0  0  0  0  0  0
  122.9937  121.9714   83.3900 O   0  0  0  0  0  0  0  0  0  0  0  0
  120.9788  123.3546   83.2250 C   0  0  0  0  0  0  0  0  0  0  0  0
  120.5719  124.8468   84.1229 Cl  0  0  0  0  0  0  0  0  0  0  0  0
  119.5364  122.3223   83.1002 Cl  0  0  0  0  0  0  0  0  0  0  0  0
  121.5490  123.7878   81.5862 Cl  0  0  0  0  0  0  0  0  0  0  0  0
  121.1552  119.3514   88.2032 H   0  0  0  0  0  0  0  0  0  0  0  0
  120.2875  119.6256   86.6545 H   0  0  0  0  0  0  0  0  0  0  0  0
  122.0651  119.3672   86.6545 H   0  0  0  0  0  0  0  0  0  0  0  0
  123.3744  120.6666   89.1951 H   0  0  0  0  0  0  0  0  0  0  0  0
  126.3492  123.1045   87.1896 H   0  0  0  0  0  0  0  0  0  0  0  0
  124.6826  123.6921   85.4240 H   0  0  0  0  0  0  0  0  0  0  0  0
  121.2141  123.1759   85.7345 H   0  0  0  0  0  0  0  0  0  0  0  0
  1  2  1  0
  2  3  1  0
  3  4  2  0
  4  5  1  0
  5  6  1  0
  6  7  2  0
  6  8  1  0
  5  9  2  0
  9 10  1  0
 10 11  2  0
 11 12  1  0
 12 13  1  0
 13 14  2  0
 13 15  1  0
 15 16  1  0
 15 17  1  0
 15 18  1  0
 11  3  1  0
  1 19  1  0
  1 20  1  0
  1 21  1  0
  4 22  1  0
  9 23  1  0
 10 24  1  0
 12 25  1  0
M  CHG  2   6   1   8  -1
M  END
>  <loss>  (2) 
0.6849572658538818

>  <score>  (2) 
3.2207751274108887

$$$$
ZNPYZUWOLOJVPJ-UHFFFAOYSA-N
     RDKit          3D

 25 25  0  0  0  0  0  0  0  0999 V2000
  121.2070  119.8093   87.2294 C   0  0  0  0  0  0  0  0  0  0  0  0
  121.4193  121.2131   87.3409 O   0  0  0  0  0  0  0  0  0  0  0  0
  122.7232  121.6530   87.3843 C   0  0  0  0  0  0  0  0  0  0  0  0
  123.6482  121.3141   88.3753 C   0  0  0  0  0  0  0  0  0  0  0  0
  124.9504  121.8297   88.3062 C   0  0  0  0  0  0  0  0  0  0  0  0
  125.9264  121.4762   89.3457 N   0  0  0  0  0  4  0  0  0  0  0  0
  125.8433  120.3477   89.8513 O   0  0  0  0  0  0  0  0  0  0  0  0
  126.7736  122.3250   89.6554 O   0  0  0  0  0  1  0  0  0  0  0  0
  125.3308  122.6763   87.2594 C   0  0  0  0  0  0  0  0  0  0  0  0
  124.4027  123.0131   86.2699 C   0  0  0  0  0  0  0  0  0  0  0  0
  123.1010  122.5086   86.3229 C   0  0  0  0  0  0  0  0  0  0  0  0
  122.1045  122.7990   85.3655 N   0  0  0  0  0  0  0  0  0  0  0  0
  122.1378  122.6171   83.9827 C   0  0  0  0  0  0  0  0  0  0  0  0
  122.9912  121.9409   83.4074 O   0  0  0  0  0  0  0  0  0  0  0  0
  120.9932  123.3469   83.2294 C   0  0  0  0  0  0  0  0  0  0  0  0
  121.6197  123.9080   81.6509 Cl  0  0  0  0  0  0  0  0  0  0  0  0
  119.6000  122.2733   82.9693 Cl  0  0  0  0  0  0  0  0  0  0  0  0
  120.4878  124.7607   84.2010 Cl  0  0  0  0  0  0  0  0  0  0  0  0
  121.1402  119.3676   88.2346 H   0  0  0  0  0  0  0  0  0  0  0  0
  120.2704  119.6223   86.6837 H   0  0  0  0  0  0  0  0  0  0  0  0
  122.0465  119.3537   86.6837 H   0  0  0  0  0  0  0  0  0  0  0  0
  123.3577  120.6491   89.2019 H   0  0  0  0  0  0  0  0  0  0  0  0
  126.3551  123.0749   87.2153 H   0  0  0  0  0  0  0  0  0  0  0  0
  124.6987  123.6785   85.4455 H   0  0  0  0  0  0  0  0  0  0  0  0
  121.2328  123.2004   85.7396 H   0  0  0  0  0  0  0  0  0  0  0  0
  1  2  1  0
  2  3  1  0
  3  4  2  0
  4  5  1  0
  5  6  1  0
  6  7  2  0
  6  8  1  0
  5  9  2  0
  9 10  1  0
 10 11  2  0
 11 12  1  0
 12 13  1  0
 13 14  2  0
 13 15  1  0
 15 16  1  0
 15 17  1  0
 15 18  1  0
 11  3  1  0
  1 19  1  0
  1 20  1  0
  1 21  1  0
  4 22  1  0
  9 23  1  0
 10 24  1  0
 12 25  1  0
M  CHG  2   6   1   8  -1
M  END
>  <loss>  (3) 
0.6835551857948303

>  <score>  (3) 
3.1981067657470703

$$$$
ZNPYZUWOLOJVPJ-UHFFFAOYSA-N
     RDKit          3D

 25 25  0  0  0  0  0  0  0  0999 V2000
  121.2876  119.6647   87.2538 C   0  0  0  0  0  0  0  0  0  0  0  0
  121.4234  121.0705   87.4368 O   0  0  0  0  0  0  0  0  0  0  0  0
  122.7004  121.5848   87.4521 C   0  0  0  0  0  0  0  0  0  0  0  0
  123.6776  121.2694   88.3999 C   0  0  0  0  0  0  0  0  0  0  0  0
  124.9445  121.8628   88.3053 C   0  0  0  0  0  0  0  0  0  0  0  0
  125.9750  121.5343   89.2994 N   0  0  0  0  0  4  0  0  0  0  0  0
  125.8107  120.5118   89.9804 O   0  0  0  0  0  0  0  0  0  0  0  0
  126.9460  122.2969   89.3987 O   0  0  0  0  0  1  0  0  0  0  0  0
  125.2385  122.7634   87.2760 C   0  0  0  0  0  0  0  0  0  0  0  0
  124.2585  123.0765   86.3297 C   0  0  0  0  0  0  0  0  0  0  0  0
  122.9908  122.4947   86.4085 C   0  0  0  0  0  0  0  0  0  0  0  0
  121.9462  122.7566   85.4951 N   0  0  0  0  0  0  0  0  0  0  0  0
  121.9416  122.6222   84.1065 C   0  0  0  0  0  0  0  0  0  0  0  0
  122.7959  121.9914   83.4828 O   0  0  0  0  0  0  0  0  0  0  0  0
  120.7574  123.3480   83.4130 C   0  0  0  0  0  0  0  0  0  0  0  0
  120.8746  123.2351   81.6425 Cl  0  0  0  0  0  0  0  0  0  0  0  0
  120.7803  125.0663   83.9077 Cl  0  0  0  0  0  0  0  0  0  0  0  0
  119.2299  122.5955   83.9606 Cl  0  0  0  0  0  0  0  0  0  0  0  0
  121.2398  119.1701   88.2352 H   0  0  0  0  0  0  0  0  0  0  0  0
  120.3650  119.4555   86.6924 H   0  0  0  0  0  0  0  0  0  0  0  0
  122.1530  119.2828   86.6924 H   0  0  0  0  0  0  0  0  0  0  0  0
  123.4550  120.5623   89.2125 H   0  0  0  0  0  0  0  0  0  0  0  0
  126.2359  123.2228   87.2116 H   0  0  0  0  0  0  0  0  0  0  0  0
  124.4865  123.7843   85.5191 H   0  0  0  0  0  0  0  0  0  0  0  0
  121.0663  123.0932   85.9115 H   0  0  0  0  0  0  0  0  0  0  0  0
  1  2  1  0
  2  3  1  0
  3  4  2  0
  4  5  1  0
  5  6  1  0
  6  7  2  0
  6  8  1  0
  5  9  2  0
  9 10  1  0
 10 11  2  0
 11 12  1  0
 12 13  1  0
 13 14  2  0
 13 15  1  0
 15 16  1  0
 15 17  1  0
 15 18  1  0
 11  3  1  0
  1 19  1  0
  1 20  1  0
  1 21  1  0
  4 22  1  0
  9 23  1  0
 10 24  1  0
 12 25  1  0
M  CHG  2   6   1   8  -1
M  END
>  <loss>  (4) 
0.6953369975090027

>  <score>  (4) 
3.2437217235565186

$$$$
ZNPYZUWOLOJVPJ-UHFFFAOYSA-N
     RDKit          3D

 25 25  0  0  0  0  0  0  0  0999 V2000
  121.2795  119.7432   87.1344 C   0  0  0  0  0  0  0  0  0  0  0  0
  121.4506  121.1475   87.2971 O   0  0  0  0  0  0  0  0  0  0  0  0
  122.7410  121.6226   87.3657 C   0  0  0  0  0  0  0  0  0  0  0  0
  123.6651  121.2850   88.3580 C   0  0  0  0  0  0  0  0  0  0  0  0
  124.9528  121.8385   88.3160 C   0  0  0  0  0  0  0  0  0  0  0  0
  125.9277  121.4865   89.3570 N   0  0  0  0  0  4  0  0  0  0  0  0
  125.8343  120.3645   89.8752 O   0  0  0  0  0  0  0  0  0  0  0  0
  126.7842  122.3299   89.6554 O   0  0  0  0  0  1  0  0  0  0  0  0
  125.3197  122.7215   87.2949 C   0  0  0  0  0  0  0  0  0  0  0  0
  124.3926  123.0569   86.3039 C   0  0  0  0  0  0  0  0  0  0  0  0
  123.1053  122.5150   86.3302 C   0  0  0  0  0  0  0  0  0  0  0  0
  122.1107  122.8012   85.3694 N   0  0  0  0  0  0  0  0  0  0  0  0
  122.1536  122.6299   83.9855 C   0  0  0  0  0  0  0  0  0  0  0  0
  122.9896  121.9293   83.4138 O   0  0  0  0  0  0  0  0  0  0  0  0
  121.0437  123.4053   83.2259 C   0  0  0  0  0  0  0  0  0  0  0  0
  120.7051  124.9231   84.1094 Cl  0  0  0  0  0  0  0  0  0  0  0  0
  121.5401  123.7838   81.5610 Cl  0  0  0  0  0  0  0  0  0  0  0  0
  119.5674  122.3964   83.1968 Cl  0  0  0  0  0  0  0  0  0  0  0  0
  121.2211  119.2639   88.1228 H   0  0  0  0  0  0  0  0  0  0  0  0
  120.3510  119.5490   86.5773 H   0  0  0  0  0  0  0  0  0  0  0  0
  122.1341  119.3318   86.5773 H   0  0  0  0  0  0  0  0  0  0  0  0
  123.3850  120.5915   89.1646 H   0  0  0  0  0  0  0  0  0  0  0  0
  126.3327  123.1496   87.2719 H   0  0  0  0  0  0  0  0  0  0  0  0
  124.6781  123.7509   85.4996 H   0  0  0  0  0  0  0  0  0  0  0  0
  121.2326  123.1901   85.7416 H   0  0  0  0  0  0  0  0  0  0  0  0
  1  2  1  0
  2  3  1  0
  3  4  2  0
  4  5  1  0
  5  6  1  0
  6  7  2  0
  6  8  1  0
  5  9  2  0
  9 10  1  0
 10 11  2  0
 11 12  1  0
 12 13  1  0
 13 14  2  0
 13 15  1  0
 15 16  1  0
 15 17  1  0
 15 18  1  0
 11  3  1  0
  1 19  1  0
  1 20  1  0
  1 21  1  0
  4 22  1  0
  9 23  1  0
 10 24  1  0
 12 25  1  0
M  CHG  2   6   1   8  -1
M  END
>  <loss>  (5) 
0.6852279305458069

>  <score>  (5) 
3.1600499153137207

$$$$
ZNPYZUWOLOJVPJ-UHFFFAOYSA-N
     RDKit          3D

 25 25  0  0  0  0  0  0  0  0999 V2000
  121.2754  119.7346   87.1276 C   0  0  0  0  0  0  0  0  0  0  0  0
  121.4439  121.1365   87.3132 O   0  0  0  0  0  0  0  0  0  0  0  0
  122.7335  121.6144   87.3770 C   0  0  0  0  0  0  0  0  0  0  0  0
  123.6609  121.2817   88.3679 C   0  0  0  0  0  0  0  0  0  0  0  0
  124.9473  121.8377   88.3209 C   0  0  0  0  0  0  0  0  0  0  0  0
  125.9256  121.4908   89.3604 N   0  0  0  0  0  4  0  0  0  0  0  0
  125.8193  120.3808   89.9014 O   0  0  0  0  0  0  0  0  0  0  0  0
  126.7978  122.3263   89.6349 O   0  0  0  0  0  1  0  0  0  0  0  0
  125.3098  122.7183   87.2962 C   0  0  0  0  0  0  0  0  0  0  0  0
  124.3794  123.0489   86.3066 C   0  0  0  0  0  0  0  0  0  0  0  0
  123.0933  122.5044   86.3379 C   0  0  0  0  0  0  0  0  0  0  0  0
  122.0957  122.7857   85.3788 N   0  0  0  0  0  0  0  0  0  0  0  0
  122.1402  122.6229   83.9940 C   0  0  0  0  0  0  0  0  0  0  0  0
  122.9802  121.9300   83.4186 O   0  0  0  0  0  0  0  0  0  0  0  0
  121.0267  123.3971   83.2384 C   0  0  0  0  0  0  0  0  0  0  0  0
  120.7364  124.9452   84.0856 Cl  0  0  0  0  0  0  0  0  0  0  0  0
  121.4904  123.7192   81.5523 Cl  0  0  0  0  0  0  0  0  0  0  0  0
  119.5323  122.4155   83.2723 Cl  0  0  0  0  0  0  0  0  0  0  0  0
  121.2158  119.2395   88.1081 H   0  0  0  0  0  0  0  0  0  0  0  0
  120.3483  119.5480   86.5657 H   0  0  0  0  0  0  0  0  0  0  0  0
  122.1318  119.3336   86.5657 H   0  0  0  0  0  0  0  0  0  0  0  0
  123.3843  120.5900   89.1773 H   0  0  0  0  0  0  0  0  0  0  0  0
  126.3218  123.1485   87.2692 H   0  0  0  0  0  0  0  0  0  0  0  0
  124.6614  123.7410   85.4995 H   0  0  0  0  0  0  0  0  0  0  0  0
  121.2136  123.1631   85.7534 H   0  0  0  0  0  0  0  0  0  0  0  0
  1  2  1  0
  2  3  1  0
  3  4  2  0
  4  5  1  0
  5  6  1  0
  6  7  2  0
  6  8  1  0
  5  9  2  0
  9 10  1  0
 10 11  2  0
 11 12  1  0
 12 13  1  0
 13 14  2  0
 13 15  1  0
 15 16  1  0
 15 17  1  0
 15 18  1  0
 11  3  1  0
  1 19  1  0
  1 20  1  0
  1 21  1  0
  4 22  1  0
  9 23  1  0
 10 24  1  0
 12 25  1  0
M  CHG  2   6   1   8  -1
M  END
>  <loss>  (6) 
0.6854276657104492

>  <score>  (6) 
3.1600234508514404

$$$$
ZNPYZUWOLOJVPJ-UHFFFAOYSA-N
     RDKit          3D

 25 25  0  0  0  0  0  0  0  0999 V2000
  121.3226  119.6854   87.1132 C   0  0  0  0  0  0  0  0  0  0  0  0
  121.4611  121.0946   87.2648 O   0  0  0  0  0  0  0  0  0  0  0  0
  122.7397  121.5979   87.3498 C   0  0  0  0  0  0  0  0  0  0  0  0
  123.6660  121.2629   88.3411 C   0  0  0  0  0  0  0  0  0  0  0  0
  124.9407  121.8467   88.3170 C   0  0  0  0  0  0  0  0  0  0  0  0
  125.9178  121.4977   89.3569 N   0  0  0  0  0  4  0  0  0  0  0  0
  125.7959  120.3968   89.9131 O   0  0  0  0  0  0  0  0  0  0  0  0
  126.8047  122.3224   89.6166 O   0  0  0  0  0  1  0  0  0  0  0  0
  125.2927  122.7570   87.3148 C   0  0  0  0  0  0  0  0  0  0  0  0
  124.3635  123.0897   86.3248 C   0  0  0  0  0  0  0  0  0  0  0  0
  123.0889  122.5178   86.3333 C   0  0  0  0  0  0  0  0  0  0  0  0
  122.0932  122.7993   85.3724 N   0  0  0  0  0  0  0  0  0  0  0  0
  122.1420  122.6413   83.9872 C   0  0  0  0  0  0  0  0  0  0  0  0
  123.0180  121.9980   83.4079 O   0  0  0  0  0  0  0  0  0  0  0  0
  120.9876  123.3576   83.2361 C   0  0  0  0  0  0  0  0  0  0  0  0
  119.5641  122.3039   83.0782 Cl  0  0  0  0  0  0  0  0  0  0  0  0
  121.5733  123.8224   81.6117 Cl  0  0  0  0  0  0  0  0  0  0  0  0
  120.5433  124.8307   84.1481 Cl  0  0  0  0  0  0  0  0  0  0  0  0
  121.2762  119.2127   88.1053 H   0  0  0  0  0  0  0  0  0  0  0  0
  120.3985  119.4653   86.5585 H   0  0  0  0  0  0  0  0  0  0  0  0
  122.1862  119.2896   86.5585 H   0  0  0  0  0  0  0  0  0  0  0  0
  123.3977  120.5481   89.1328 H   0  0  0  0  0  0  0  0  0  0  0  0
  126.2956  123.2088   87.3058 H   0  0  0  0  0  0  0  0  0  0  0  0
  124.6371  123.8053   85.5355 H   0  0  0  0  0  0  0  0  0  0  0  0
  121.2089  123.1729   85.7458 H   0  0  0  0  0  0  0  0  0  0  0  0
  1  2  1  0
  2  3  1  0
  3  4  2  0
  4  5  1  0
  5  6  1  0
  6  7  2  0
  6  8  1  0
  5  9  2  0
  9 10  1  0
 10 11  2  0
 11 12  1  0
 12 13  1  0
 13 14  2  0
 13 15  1  0
 15 16  1  0
 15 17  1  0
 15 18  1  0
 11  3  1  0
  1 19  1  0
  1 20  1  0
  1 21  1  0
  4 22  1  0
  9 23  1  0
 10 24  1  0
 12 25  1  0
M  CHG  2   6   1   8  -1
M  END
>  <loss>  (7) 
0.682741641998291

>  <score>  (7) 
3.1379010677337646

$$$$
ZNPYZUWOLOJVPJ-UHFFFAOYSA-N
     RDKit          3D

 25 25  0  0  0  0  0  0  0  0999 V2000
  121.3299  119.6808   87.1177 C   0  0  0  0  0  0  0  0  0  0  0  0
  121.4667  121.0902   87.2692 O   0  0  0  0  0  0  0  0  0  0  0  0
  122.7448  121.5949   87.3542 C   0  0  0  0  0  0  0  0  0  0  0  0
  123.6725  121.2590   88.3437 C   0  0  0  0  0  0  0  0  0  0  0  0
  124.9464  121.8444   88.3196 C   0  0  0  0  0  0  0  0  0  0  0  0
  125.9250  121.4943   89.3578 N   0  0  0  0  0  4  0  0  0  0  0  0
  125.8058  120.3915   89.9107 O   0  0  0  0  0  0  0  0  0  0  0  0
  126.8104  122.3201   89.6193 O   0  0  0  0  0  1  0  0  0  0  0  0
  125.2962  122.7575   87.3192 C   0  0  0  0  0  0  0  0  0  0  0  0
  124.3655  123.0912   86.3309 C   0  0  0  0  0  0  0  0  0  0  0  0
  123.0917  122.5176   86.3394 C   0  0  0  0  0  0  0  0  0  0  0  0
  122.0946  122.8001   85.3802 N   0  0  0  0  0  0  0  0  0  0  0  0
  122.1368  122.6309   83.9960 C   0  0  0  0  0  0  0  0  0  0  0  0
  122.9993  121.9674   83.4192 O   0  0  0  0  0  0  0  0  0  0  0  0
  120.9936  123.3627   83.2426 C   0  0  0  0  0  0  0  0  0  0  0  0
  119.5647  122.3202   83.0613 Cl  0  0  0  0  0  0  0  0  0  0  0  0
  121.5965  123.8407   81.6283 Cl  0  0  0  0  0  0  0  0  0  0  0  0
  120.5510  124.8290   84.1663 Cl  0  0  0  0  0  0  0  0  0  0  0  0
  121.2840  119.2081   88.1100 H   0  0  0  0  0  0  0  0  0  0  0  0
  120.4060  119.4596   86.5631 H   0  0  0  0  0  0  0  0  0  0  0  0
  122.1939  119.2860   86.5631 H   0  0  0  0  0  0  0  0  0  0  0  0
  123.4059  120.5419   89.1341 H   0  0  0  0  0  0  0  0  0  0  0  0
  126.2985  123.2106   87.3102 H   0  0  0  0  0  0  0  0  0  0  0  0
  124.6375  123.8089   85.5429 H   0  0  0  0  0  0  0  0  0  0  0  0
  121.2150  123.1839   85.7540 H   0  0  0  0  0  0  0  0  0  0  0  0
  1  2  1  0
  2  3  1  0
  3  4  2  0
  4  5  1  0
  5  6  1  0
  6  7  2  0
  6  8  1  0
  5  9  2  0
  9 10  1  0
 10 11  2  0
 11 12  1  0
 12 13  1  0
 13 14  2  0
 13 15  1  0
 15 16  1  0
 15 17  1  0
 15 18  1  0
 11  3  1  0
  1 19  1  0
  1 20  1  0
  1 21  1  0
  4 22  1  0
  9 23  1  0
 10 24  1  0
 12 25  1  0
M  CHG  2   6   1   8  -1
M  END
>  <loss>  (8) 
0.6827809810638428

>  <score>  (8) 
3.1376867294311523

$$$$
ZNPYZUWOLOJVPJ-UHFFFAOYSA-N
     RDKit          3D

 25 25  0  0  0  0  0  0  0  0999 V2000
  121.2301  119.7966   87.1657 C   0  0  0  0  0  0  0  0  0  0  0  0
  121.4285  121.1991   87.3127 O   0  0  0  0  0  0  0  0  0  0  0  0
  122.7280  121.6502   87.3711 C   0  0  0  0  0  0  0  0  0  0  0  0
  123.6486  121.3087   88.3654 C   0  0  0  0  0  0  0  0  0  0  0  0
  124.9465  121.8367   88.3120 C   0  0  0  0  0  0  0  0  0  0  0  0
  125.9177  121.4804   89.3550 N   0  0  0  0  0  4  0  0  0  0  0  0
  126.7942  122.3093   89.6356 O   0  0  0  0  0  0  0  0  0  0  0  0
  125.8014  120.3698   89.8926 O   0  0  0  0  0  1  0  0  0  0  0  0
  125.3271  122.6982   87.2776 C   0  0  0  0  0  0  0  0  0  0  0  0
  124.4035  123.0377   86.2847 C   0  0  0  0  0  0  0  0  0  0  0  0
  123.1061  122.5210   86.3222 C   0  0  0  0  0  0  0  0  0  0  0  0
  122.1143  122.8129   85.3603 N   0  0  0  0  0  0  0  0  0  0  0  0
  122.1501  122.6227   83.9787 C   0  0  0  0  0  0  0  0  0  0  0  0
  122.9798  121.9097   83.4130 O   0  0  0  0  0  0  0  0  0  0  0  0
  121.0373  123.3887   83.2140 C   0  0  0  0  0  0  0  0  0  0  0  0
  119.5822  122.3515   83.1499 Cl  0  0  0  0  0  0  0  0  0  0  0  0
  120.6555  124.8879   84.1120 Cl  0  0  0  0  0  0  0  0  0  0  0  0
  121.5510  123.8005   81.5623 Cl  0  0  0  0  0  0  0  0  0  0  0  0
  121.1640  119.3295   88.1594 H   0  0  0  0  0  0  0  0  0  0  0  0
  120.2972  119.6143   86.6121 H   0  0  0  0  0  0  0  0  0  0  0  0
  122.0758  119.3626   86.6121 H   0  0  0  0  0  0  0  0  0  0  0  0
  123.3577  120.6319   89.1823 H   0  0  0  0  0  0  0  0  0  0  0  0
  126.3480  123.1065   87.2458 H   0  0  0  0  0  0  0  0  0  0  0  0
  124.6998  123.7149   85.4700 H   0  0  0  0  0  0  0  0  0  0  0  0
  121.2445  123.2226   85.7296 H   0  0  0  0  0  0  0  0  0  0  0  0
  1  2  1  0
  2  3  1  0
  3  4  2  0
  4  5  1  0
  5  6  1  0
  6  7  2  0
  6  8  1  0
  5  9  2  0
  9 10  1  0
 10 11  2  0
 11 12  1  0
 12 13  1  0
 13 14  2  0
 13 15  1  0
 15 16  1  0
 15 17  1  0
 15 18  1  0
 11  3  1  0
  1 19  1  0
  1 20  1  0
  1 21  1  0
  4 22  1  0
  9 23  1  0
 10 24  1  0
 12 25  1  0
M  CHG  2   6   1   8  -1
M  END
>  <loss>  (9) 
0.6847356557846069

>  <score>  (9) 
3.1417341232299805

$$$$
ZNPYZUWOLOJVPJ-UHFFFAOYSA-N
     RDKit          3D

 25 25  0  0  0  0  0  0  0  0999 V2000
  121.3643  119.5759   87.1939 C   0  0  0  0  0  0  0  0  0  0  0  0
  121.4541  120.9826   87.3968 O   0  0  0  0  0  0  0  0  0  0  0  0
  122.7146  121.5341   87.4473 C   0  0  0  0  0  0  0  0  0  0  0  0
  123.6890  121.2150   88.3966 C   0  0  0  0  0  0  0  0  0  0  0  0
  124.9385  121.8489   88.3400 C   0  0  0  0  0  0  0  0  0  0  0  0
  125.9660  121.5166   89.3358 N   0  0  0  0  0  4  0  0  0  0  0  0
  125.9146  120.3954   89.8617 O   0  0  0  0  0  0  0  0  0  0  0  0
  126.8220  122.3746   89.5912 O   0  0  0  0  0  1  0  0  0  0  0  0
  125.2178  122.7936   87.3467 C   0  0  0  0  0  0  0  0  0  0  0  0
  124.2406  123.1104   86.3987 C   0  0  0  0  0  0  0  0  0  0  0  0
  122.9903  122.4886   86.4400 C   0  0  0  0  0  0  0  0  0  0  0  0
  121.9497  122.7509   85.5221 N   0  0  0  0  0  0  0  0  0  0  0  0
  121.9539  122.6248   84.1327 C   0  0  0  0  0  0  0  0  0  0  0  0
  122.8097  121.9941   83.5110 O   0  0  0  0  0  0  0  0  0  0  0  0
  120.7743  123.3550   83.4362 C   0  0  0  0  0  0  0  0  0  0  0  0
  119.2449  122.5953   83.9673 Cl  0  0  0  0  0  0  0  0  0  0  0  0
  120.9051  123.2567   81.6657 Cl  0  0  0  0  0  0  0  0  0  0  0  0
  120.7898  125.0699   83.9436 Cl  0  0  0  0  0  0  0  0  0  0  0  0
  121.3318  119.0663   88.1682 H   0  0  0  0  0  0  0  0  0  0  0  0
  120.4496  119.3447   86.6284 H   0  0  0  0  0  0  0  0  0  0  0  0
  122.2422  119.2302   86.6284 H   0  0  0  0  0  0  0  0  0  0  0  0
  123.4779  120.4733   89.1811 H   0  0  0  0  0  0  0  0  0  0  0  0
  126.2015  123.2847   87.3119 H   0  0  0  0  0  0  0  0  0  0  0  0
  124.4571  123.8528   85.6164 H   0  0  0  0  0  0  0  0  0  0  0  0
  121.0658  123.0808   85.9353 H   0  0  0  0  0  0  0  0  0  0  0  0
  1  2  1  0
  2  3  1  0
  3  4  2  0
  4  5  1  0
  5  6  1  0
  6  7  2  0
  6  8  1  0
  5  9  2  0
  9 10  1  0
 10 11  2  0
 11 12  1  0
 12 13  1  0
 13 14  2  0
 13 15  1  0
 15 16  1  0
 15 17  1  0
 15 18  1  0
 11  3  1  0
  1 19  1  0
  1 20  1  0
  1 21  1  0
  4 22  1  0
  9 23  1  0
 10 24  1  0
 12 25  1  0
M  CHG  2   6   1   8  -1
M  END
>  <loss>  (10) 
0.6935229897499084

>  <score>  (10) 
3.1711559295654297

$$$$
ZNPYZUWOLOJVPJ-UHFFFAOYSA-N
     RDKit          3D

 25 25  0  0  0  0  0  0  0  0999 V2000
  121.2821  119.7099   87.1462 C   0  0  0  0  0  0  0  0  0  0  0  0
  121.4285  121.1111   87.3538 O   0  0  0  0  0  0  0  0  0  0  0  0
  122.7100  121.6122   87.3990 C   0  0  0  0  0  0  0  0  0  0  0  0
  123.6632  121.2828   88.3661 C   0  0  0  0  0  0  0  0  0  0  0  0
  124.9379  121.8635   88.3017 C   0  0  0  0  0  0  0  0  0  0  0  0
  125.9433  121.5202   89.3162 N   0  0  0  0  0  4  0  0  0  0  0  0
  125.7872  120.4634   89.9446 O   0  0  0  0  0  0  0  0  0  0  0  0
  126.8864  122.3054   89.4839 O   0  0  0  0  0  1  0  0  0  0  0  0
  125.2633  122.7654   87.2830 C   0  0  0  0  0  0  0  0  0  0  0  0
  124.3072  123.0927   86.3172 C   0  0  0  0  0  0  0  0  0  0  0  0
  123.0322  122.5237   86.3660 C   0  0  0  0  0  0  0  0  0  0  0  0
  122.0103  122.8000   85.4314 N   0  0  0  0  0  0  0  0  0  0  0  0
  122.0318  122.6638   84.0431 C   0  0  0  0  0  0  0  0  0  0  0  0
  122.9071  122.0466   83.4351 O   0  0  0  0  0  0  0  0  0  0  0  0
  120.8447  123.3642   83.3288 C   0  0  0  0  0  0  0  0  0  0  0  0
  120.9609  123.1974   81.5624 Cl  0  0  0  0  0  0  0  0  0  0  0  0
  119.3215  122.6228   83.9018 Cl  0  0  0  0  0  0  0  0  0  0  0  0
  120.8607  125.0975   83.7692 Cl  0  0  0  0  0  0  0  0  0  0  0  0
  121.2286  119.1987   88.1188 H   0  0  0  0  0  0  0  0  0  0  0  0
  120.3589  119.5176   86.5798 H   0  0  0  0  0  0  0  0  0  0  0  0
  122.1455  119.3309   86.5798 H   0  0  0  0  0  0  0  0  0  0  0  0
  123.4159  120.5745   89.1706 H   0  0  0  0  0  0  0  0  0  0  0  0
  126.2664  123.2149   87.2422 H   0  0  0  0  0  0  0  0  0  0  0  0
  124.5599  123.8015   85.5149 H   0  0  0  0  0  0  0  0  0  0  0  0
  121.1274  123.1505   85.8295 H   0  0  0  0  0  0  0  0  0  0  0  0
  1  2  1  0
  2  3  1  0
  3  4  2  0
  4  5  1  0
  5  6  1  0
  6  7  2  0
  6  8  1  0
  5  9  2  0
  9 10  1  0
 10 11  2  0
 11 12  1  0
 12 13  1  0
 13 14  2  0
 13 15  1  0
 15 16  1  0
 15 17  1  0
 15 18  1  0
 11  3  1  0
  1 19  1  0
  1 20  1  0
  1 21  1  0
  4 22  1  0
  9 23  1  0
 10 24  1  0
 12 25  1  0
M  CHG  2   6   1   8  -1
M  END
>  <loss>  (11) 
0.6986545324325562

>  <score>  (11) 
3.1890010833740234

$$$$
ZNPYZUWOLOJVPJ-UHFFFAOYSA-N
     RDKit          3D

 25 25  0  0  0  0  0  0  0  0999 V2000
  121.3678  119.6554   87.0877 C   0  0  0  0  0  0  0  0  0  0  0  0
  121.4866  121.0664   87.2392 O   0  0  0  0  0  0  0  0  0  0  0  0
  122.7576  121.5860   87.3390 C   0  0  0  0  0  0  0  0  0  0  0  0
  123.6831  121.2490   88.3302 C   0  0  0  0  0  0  0  0  0  0  0  0
  124.9497  121.8506   88.3220 C   0  0  0  0  0  0  0  0  0  0  0  0
  125.9259  121.4994   89.3621 N   0  0  0  0  0  4  0  0  0  0  0  0
  125.8223  120.3848   89.8939 O   0  0  0  0  0  0  0  0  0  0  0  0
  126.7938  122.3363   89.6461 O   0  0  0  0  0  1  0  0  0  0  0  0
  125.2944  122.7807   87.3356 C   0  0  0  0  0  0  0  0  0  0  0  0
  124.3660  123.1154   86.3455 C   0  0  0  0  0  0  0  0  0  0  0  0
  123.0995  122.5259   86.3384 C   0  0  0  0  0  0  0  0  0  0  0  0
  122.1052  122.8080   85.3761 N   0  0  0  0  0  0  0  0  0  0  0  0
  122.1479  122.6295   83.9931 C   0  0  0  0  0  0  0  0  0  0  0  0
  122.9949  121.9405   83.4235 O   0  0  0  0  0  0  0  0  0  0  0  0
  121.0237  123.3821   83.2316 C   0  0  0  0  0  0  0  0  0  0  0  0
  121.5795  123.9359   81.6360 Cl  0  0  0  0  0  0  0  0  0  0  0  0
  119.6350  122.2733   83.0309 Cl  0  0  0  0  0  0  0  0  0  0  0  0
  120.5190  124.7901   84.2121 Cl  0  0  0  0  0  0  0  0  0  0  0  0
  121.3280  119.1822   88.0800 H   0  0  0  0  0  0  0  0  0  0  0  0
  120.4469  119.4224   86.5331 H   0  0  0  0  0  0  0  0  0  0  0  0
  122.2368  119.2717   86.5331 H   0  0  0  0  0  0  0  0  0  0  0  0
  123.4204  120.5187   89.1097 H   0  0  0  0  0  0  0  0  0  0  0  0
  126.2909  123.2463   87.3389 H   0  0  0  0  0  0  0  0  0  0  0  0
  124.6340  123.8463   85.5684 H   0  0  0  0  0  0  0  0  0  0  0  0
  121.2274  123.1995   85.7463 H   0  0  0  0  0  0  0  0  0  0  0  0
  1  2  1  0
  2  3  1  0
  3  4  2  0
  4  5  1  0
  5  6  1  0
  6  7  2  0
  6  8  1  0
  5  9  2  0
  9 10  1  0
 10 11  2  0
 11 12  1  0
 12 13  1  0
 13 14  2  0
 13 15  1  0
 15 16  1  0
 15 17  1  0
 15 18  1  0
 11  3  1  0
  1 19  1  0
  1 20  1  0
  1 21  1  0
  4 22  1  0
  9 23  1  0
 10 24  1  0
 12 25  1  0
M  CHG  2   6   1   8  -1
M  END
>  <loss>  (12) 
0.6849803924560547

>  <score>  (12) 
3.115666627883911

$$$$
ZNPYZUWOLOJVPJ-UHFFFAOYSA-N
     RDKit          3D

 25 25  0  0  0  0  0  0  0  0999 V2000
  121.3319  119.6815   87.1764 C   0  0  0  0  0  0  0  0  0  0  0  0
  121.4599  121.0959   87.2817 O   0  0  0  0  0  0  0  0  0  0  0  0
  122.7343  121.6101   87.3641 C   0  0  0  0  0  0  0  0  0  0  0  0
  123.6757  121.2607   88.3359 C   0  0  0  0  0  0  0  0  0  0  0  0
  124.9441  121.8579   88.3113 C   0  0  0  0  0  0  0  0  0  0  0  0
  125.9370  121.4937   89.3309 N   0  0  0  0  0  4  0  0  0  0  0  0
  125.8421  120.3722   89.8499 O   0  0  0  0  0  0  0  0  0  0  0  0
  126.8092  122.3271   89.6116 O   0  0  0  0  0  1  0  0  0  0  0  0
  125.2749  122.7960   87.3277 C   0  0  0  0  0  0  0  0  0  0  0  0
  124.3307  123.1432   86.3571 C   0  0  0  0  0  0  0  0  0  0  0  0
  123.0621  122.5581   86.3665 C   0  0  0  0  0  0  0  0  0  0  0  0
  122.0523  122.8526   85.4243 N   0  0  0  0  0  0  0  0  0  0  0  0
  122.0389  122.6132   84.0500 C   0  0  0  0  0  0  0  0  0  0  0  0
  122.8643  121.9012   83.4769 O   0  0  0  0  0  0  0  0  0  0  0  0
  120.8808  123.3281   83.3032 C   0  0  0  0  0  0  0  0  0  0  0  0
  120.9638  125.0770   83.6679 Cl  0  0  0  0  0  0  0  0  0  0  0  0
  120.9916  123.0806   81.5459 Cl  0  0  0  0  0  0  0  0  0  0  0  0
  119.3296  122.6720   83.9045 Cl  0  0  0  0  0  0  0  0  0  0  0  0
  121.2920  119.2409   88.1835 H   0  0  0  0  0  0  0  0  0  0  0  0
  120.4079  119.4364   86.6321 H   0  0  0  0  0  0  0  0  0  0  0  0
  122.1968  119.2745   86.6321 H   0  0  0  0  0  0  0  0  0  0  0  0
  123.4240  120.5239   89.1130 H   0  0  0  0  0  0  0  0  0  0  0  0
  126.2731  123.2582   87.3180 H   0  0  0  0  0  0  0  0  0  0  0  0
  124.5878  123.8804   85.5823 H   0  0  0  0  0  0  0  0  0  0  0  0
  121.2094  123.3066   85.8041 H   0  0  0  0  0  0  0  0  0  0  0  0
  1  2  1  0
  2  3  1  0
  3  4  2  0
  4  5  1  0
  5  6  1  0
  6  7  2  0
  6  8  1  0
  5  9  2  0
  9 10  1  0
 10 11  2  0
 11 12  1  0
 12 13  1  0
 13 14  2  0
 13 15  1  0
 15 16  1  0
 15 17  1  0
 15 18  1  0
 11  3  1  0
  1 19  1  0
  1 20  1  0
  1 21  1  0
  4 22  1  0
  9 23  1  0
 10 24  1  0
 12 25  1  0
M  CHG  2   6   1   8  -1
M  END
>  <loss>  (13) 
0.6973936557769775

>  <score>  (13) 
3.141338348388672

$$$$
ZNPYZUWOLOJVPJ-UHFFFAOYSA-N
     RDKit          3D

 25 25  0  0  0  0  0  0  0  0999 V2000
  121.3753  119.5698   87.1821 C   0  0  0  0  0  0  0  0  0  0  0  0
  121.4575  120.9736   87.4073 O   0  0  0  0  0  0  0  0  0  0  0  0
  122.7142  121.5345   87.4450 C   0  0  0  0  0  0  0  0  0  0  0  0
  123.6980  121.2284   88.3889 C   0  0  0  0  0  0  0  0  0  0  0  0
  124.9423  121.8711   88.3189 C   0  0  0  0  0  0  0  0  0  0  0  0
  125.9797  121.5525   89.3091 N   0  0  0  0  0  4  0  0  0  0  0  0
  126.9532  122.3139   89.3914 O   0  0  0  0  0  0  0  0  0  0  0  0
  125.8181  120.5391   90.0040 O   0  0  0  0  0  1  0  0  0  0  0  0
  125.2073  122.8116   87.3177 C   0  0  0  0  0  0  0  0  0  0  0  0
  124.2207  123.1153   86.3751 C   0  0  0  0  0  0  0  0  0  0  0  0
  122.9753  122.4847   86.4298 C   0  0  0  0  0  0  0  0  0  0  0  0
  121.9261  122.7335   85.5180 N   0  0  0  0  0  0  0  0  0  0  0  0
  121.9294  122.6254   84.1271 C   0  0  0  0  0  0  0  0  0  0  0  0
  122.7856  122.0040   83.4966 O   0  0  0  0  0  0  0  0  0  0  0  0
  120.7438  123.3563   83.4413 C   0  0  0  0  0  0  0  0  0  0  0  0
  119.2198  122.6163   84.0131 Cl  0  0  0  0  0  0  0  0  0  0  0  0
  120.7808  125.0792   83.9210 Cl  0  0  0  0  0  0  0  0  0  0  0  0
  120.8416  123.2309   81.6704 Cl  0  0  0  0  0  0  0  0  0  0  0  0
  121.3446  119.0446   88.1482 H   0  0  0  0  0  0  0  0  0  0  0  0
  120.4624  119.3427   86.6121 H   0  0  0  0  0  0  0  0  0  0  0  0
  122.2556  119.2378   86.6121 H   0  0  0  0  0  0  0  0  0  0  0  0
  123.4982  120.4901   89.1795 H   0  0  0  0  0  0  0  0  0  0  0  0
  126.1870  123.3096   87.2725 H   0  0  0  0  0  0  0  0  0  0  0  0
  124.4260  123.8543   85.5866 H   0  0  0  0  0  0  0  0  0  0  0  0
  121.0357  123.0365   85.9377 H   0  0  0  0  0  0  0  0  0  0  0  0
  1  2  1  0
  2  3  1  0
  3  4  2  0
  4  5  1  0
  5  6  1  0
  6  7  2  0
  6  8  1  0
  5  9  2  0
  9 10  1  0
 10 11  2  0
 11 12  1  0
 12 13  1  0
 13 14  2  0
 13 15  1  0
 15 16  1  0
 15 17  1  0
 15 18  1  0
 11  3  1  0
  1 19  1  0
  1 20  1  0
  1 21  1  0
  4 22  1  0
  9 23  1  0
 10 24  1  0
 12 25  1  0
M  CHG  2   6   1   8  -1
M  END
>  <loss>  (14) 
0.6956683397293091

>  <score>  (14) 
3.132171630859375

$$$$
ZNPYZUWOLOJVPJ-UHFFFAOYSA-N
     RDKit          3D

 25 25  0  0  0  0  0  0  0  0999 V2000
  121.3302  119.6802   87.0685 C   0  0  0  0  0  0  0  0  0  0  0  0
  121.4655  121.0857   87.2534 O   0  0  0  0  0  0  0  0  0  0  0  0
  122.7431  121.5906   87.3440 C   0  0  0  0  0  0  0  0  0  0  0  0
  123.6672  121.2529   88.3362 C   0  0  0  0  0  0  0  0  0  0  0  0
  124.9411  121.8387   88.3180 C   0  0  0  0  0  0  0  0  0  0  0  0
  125.9160  121.4867   89.3590 N   0  0  0  0  0  4  0  0  0  0  0  0
  125.7930  120.3842   89.9116 O   0  0  0  0  0  0  0  0  0  0  0  0
  126.8022  122.3108   89.6231 O   0  0  0  0  0  1  0  0  0  0  0  0
  125.2943  122.7538   87.3206 C   0  0  0  0  0  0  0  0  0  0  0  0
  124.3673  123.0892   86.3296 C   0  0  0  0  0  0  0  0  0  0  0  0
  123.0936  122.5153   86.3323 C   0  0  0  0  0  0  0  0  0  0  0  0
  122.1000  122.7993   85.3698 N   0  0  0  0  0  0  0  0  0  0  0  0
  122.1489  122.6366   83.9851 C   0  0  0  0  0  0  0  0  0  0  0  0
  122.9999  121.9559   83.4113 O   0  0  0  0  0  0  0  0  0  0  0  0
  121.0262  123.3951   83.2275 C   0  0  0  0  0  0  0  0  0  0  0  0
  119.5618  122.3688   83.2094 Cl  0  0  0  0  0  0  0  0  0  0  0  0
  121.5101  123.7723   81.5586 Cl  0  0  0  0  0  0  0  0  0  0  0  0
  120.6738  124.9124   84.1063 Cl  0  0  0  0  0  0  0  0  0  0  0  0
  121.2825  119.1843   88.0492 H   0  0  0  0  0  0  0  0  0  0  0  0
  120.4078  119.4713   86.5067 H   0  0  0  0  0  0  0  0  0  0  0  0
  122.1959  119.2993   86.5067 H   0  0  0  0  0  0  0  0  0  0  0  0
  123.3979  120.5343   89.1243 H   0  0  0  0  0  0  0  0  0  0  0  0
  126.2966  123.2071   87.3161 H   0  0  0  0  0  0  0  0  0  0  0  0
  124.6419  123.8085   85.5439 H   0  0  0  0  0  0  0  0  0  0  0  0
  121.2175  123.1788   85.7414 H   0  0  0  0  0  0  0  0  0  0  0  0
  1  2  1  0
  2  3  1  0
  3  4  2  0
  4  5  1  0
  5  6  1  0
  6  7  2  0
  6  8  1  0
  5  9  2  0
  9 10  1  0
 10 11  2  0
 11 12  1  0
 12 13  1  0
 13 14  2  0
 13 15  1  0
 15 16  1  0
 15 17  1  0
 15 18  1  0
 11  3  1  0
  1 19  1  0
  1 20  1  0
  1 21  1  0
  4 22  1  0
  9 23  1  0
 10 24  1  0
 12 25  1  0
M  CHG  2   6   1   8  -1
M  END
>  <loss>  (15) 
0.6852298378944397

>  <score>  (15) 
3.075939893722534

$$$$
ZNPYZUWOLOJVPJ-UHFFFAOYSA-N
     RDKit          3D

 25 25  0  0  0  0  0  0  0  0999 V2000
  121.3444  119.6716   87.0736 C   0  0  0  0  0  0  0  0  0  0  0  0
  121.4745  121.0763   87.2683 O   0  0  0  0  0  0  0  0  0  0  0  0
  122.7504  121.5860   87.3562 C   0  0  0  0  0  0  0  0  0  0  0  0
  123.6778  121.2523   88.3467 C   0  0  0  0  0  0  0  0  0  0  0  0
  124.9494  121.8429   88.3257 C   0  0  0  0  0  0  0  0  0  0  0  0
  125.9277  121.4952   89.3650 N   0  0  0  0  0  4  0  0  0  0  0  0
  125.8164  120.3881   89.9109 O   0  0  0  0  0  0  0  0  0  0  0  0
  126.8048  122.3272   89.6344 O   0  0  0  0  0  1  0  0  0  0  0  0
  125.2971  122.7589   87.3271 C   0  0  0  0  0  0  0  0  0  0  0  0
  124.3668  123.0903   86.3378 C   0  0  0  0  0  0  0  0  0  0  0  0
  123.0954  122.5116   86.3433 C   0  0  0  0  0  0  0  0  0  0  0  0
  122.0987  122.7915   85.3828 N   0  0  0  0  0  0  0  0  0  0  0  0
  122.1464  122.6310   83.9978 C   0  0  0  0  0  0  0  0  0  0  0  0
  122.9962  121.9505   83.4222 O   0  0  0  0  0  0  0  0  0  0  0  0
  121.0269  123.3962   83.2419 C   0  0  0  0  0  0  0  0  0  0  0  0
  121.5209  123.7940   81.5808 Cl  0  0  0  0  0  0  0  0  0  0  0  0
  120.6675  124.9015   84.1379 Cl  0  0  0  0  0  0  0  0  0  0  0  0
  119.5634  122.3689   83.2010 Cl  0  0  0  0  0  0  0  0  0  0  0  0
  121.2978  119.1687   88.0509 H   0  0  0  0  0  0  0  0  0  0  0  0
  120.4231  119.4633   86.5098 H   0  0  0  0  0  0  0  0  0  0  0  0
  122.2117  119.2976   86.5098 H   0  0  0  0  0  0  0  0  0  0  0  0
  123.4128  120.5331   89.1356 H   0  0  0  0  0  0  0  0  0  0  0  0
  126.2976  123.2160   87.3205 H   0  0  0  0  0  0  0  0  0  0  0  0
  124.6372  123.8103   85.5513 H   0  0  0  0  0  0  0  0  0  0  0  0
  121.2148  123.1657   85.7563 H   0  0  0  0  0  0  0  0  0  0  0  0
  1  2  1  0
  2  3  1  0
  3  4  2  0
  4  5  1  0
  5  6  1  0
  6  7  2  0
  6  8  1  0
  5  9  2  0
  9 10  1  0
 10 11  2  0
 11 12  1  0
 12 13  1  0
 13 14  2  0
 13 15  1  0
 15 16  1  0
 15 17  1  0
 15 18  1  0
 11  3  1  0
  1 19  1  0
  1 20  1  0
  1 21  1  0
  4 22  1  0
  9 23  1  0
 10 24  1  0
 12 25  1  0
M  CHG  2   6   1   8  -1
M  END
>  <loss>  (16) 
0.6852127909660339

>  <score>  (16) 
3.067713975906372

$$$$
ZNPYZUWOLOJVPJ-UHFFFAOYSA-N
     RDKit          3D

 25 25  0  0  0  0  0  0  0  0999 V2000
  121.3690  119.6402   87.0950 C   0  0  0  0  0  0  0  0  0  0  0  0
  121.4837  121.0516   87.2467 O   0  0  0  0  0  0  0  0  0  0  0  0
  122.7534  121.5751   87.3434 C   0  0  0  0  0  0  0  0  0  0  0  0
  123.6821  121.2415   88.3327 C   0  0  0  0  0  0  0  0  0  0  0  0
  124.9468  121.8470   88.3213 C   0  0  0  0  0  0  0  0  0  0  0  0
  125.9265  121.4994   89.3593 N   0  0  0  0  0  4  0  0  0  0  0  0
  125.8271  120.3850   89.8925 O   0  0  0  0  0  0  0  0  0  0  0  0
  126.7929  122.3388   89.6403 O   0  0  0  0  0  1  0  0  0  0  0  0
  125.2864  122.7776   87.3335 C   0  0  0  0  0  0  0  0  0  0  0  0
  124.3548  123.1088   86.3454 C   0  0  0  0  0  0  0  0  0  0  0  0
  123.0900  122.5154   86.3414 C   0  0  0  0  0  0  0  0  0  0  0  0
  122.0927  122.7939   85.3813 N   0  0  0  0  0  0  0  0  0  0  0  0
  122.1407  122.6354   83.9961 C   0  0  0  0  0  0  0  0  0  0  0  0
  122.9951  121.9616   83.4192 O   0  0  0  0  0  0  0  0  0  0  0  0
  121.0124  123.3892   83.2420 C   0  0  0  0  0  0  0  0  0  0  0  0
  121.5612  123.9513   81.6469 Cl  0  0  0  0  0  0  0  0  0  0  0  0
  119.6251  122.2786   83.0413 Cl  0  0  0  0  0  0  0  0  0  0  0  0
  120.5084  124.7918   84.2306 Cl  0  0  0  0  0  0  0  0  0  0  0  0
  121.3305  119.1667   88.0871 H   0  0  0  0  0  0  0  0  0  0  0  0
  120.4487  119.4047   86.5404 H   0  0  0  0  0  0  0  0  0  0  0  0
  122.2391  119.2592   86.5404 H   0  0  0  0  0  0  0  0  0  0  0  0
  123.4235  120.5108   89.1132 H   0  0  0  0  0  0  0  0  0  0  0  0
  126.2815  123.2463   87.3343 H   0  0  0  0  0  0  0  0  0  0  0  0
  124.6187  123.8402   85.5673 H   0  0  0  0  0  0  0  0  0  0  0  0
  121.2077  123.1653   85.7552 H   0  0  0  0  0  0  0  0  0  0  0  0
  1  2  1  0
  2  3  1  0
  3  4  2  0
  4  5  1  0
  5  6  1  0
  6  7  2  0
  6  8  1  0
  5  9  2  0
  9 10  1  0
 10 11  2  0
 11 12  1  0
 12 13  1  0
 13 14  2  0
 13 15  1  0
 15 16  1  0
 15 17  1  0
 15 18  1  0
 11  3  1  0
  1 19  1  0
  1 20  1  0
  1 21  1  0
  4 22  1  0
  9 23  1  0
 10 24  1  0
 12 25  1  0
M  CHG  2   6   1   8  -1
M  END
>  <loss>  (17) 
0.6849985122680664

>  <score>  (17) 
3.0627658367156982

$$$$
ZNPYZUWOLOJVPJ-UHFFFAOYSA-N
     RDKit          3D

 25 25  0  0  0  0  0  0  0  0999 V2000
  121.3834  119.5648   87.1749 C   0  0  0  0  0  0  0  0  0  0  0  0
  121.4625  120.9681   87.4035 O   0  0  0  0  0  0  0  0  0  0  0  0
  122.7181  121.5318   87.4417 C   0  0  0  0  0  0  0  0  0  0  0  0
  123.7029  121.2259   88.3846 C   0  0  0  0  0  0  0  0  0  0  0  0
  124.9458  121.8715   88.3154 C   0  0  0  0  0  0  0  0  0  0  0  0
  125.9842  121.5532   89.3045 N   0  0  0  0  0  4  0  0  0  0  0  0
  126.9521  122.3210   89.3936 O   0  0  0  0  0  0  0  0  0  0  0  0
  125.8293  120.5335   89.9918 O   0  0  0  0  0  1  0  0  0  0  0  0
  125.2082  122.8145   87.3160 C   0  0  0  0  0  0  0  0  0  0  0  0
  124.2206  123.1180   86.3744 C   0  0  0  0  0  0  0  0  0  0  0  0
  122.9767  122.4845   86.4284 C   0  0  0  0  0  0  0  0  0  0  0  0
  121.9265  122.7328   85.5175 N   0  0  0  0  0  0  0  0  0  0  0  0
  121.9279  122.6224   84.1268 C   0  0  0  0  0  0  0  0  0  0  0  0
  122.7841  122.0013   83.4960 O   0  0  0  0  0  0  0  0  0  0  0  0
  120.7402  123.3503   83.4415 C   0  0  0  0  0  0  0  0  0  0  0  0
  119.2192  122.5914   83.9964 Cl  0  0  0  0  0  0  0  0  0  0  0  0
  120.7595  125.0684   83.9394 Cl  0  0  0  0  0  0  0  0  0  0  0  0
  120.8495  123.2443   81.6700 Cl  0  0  0  0  0  0  0  0  0  0  0  0
  121.3536  119.0372   88.1396 H   0  0  0  0  0  0  0  0  0  0  0  0
  120.4709  119.3371   86.6042 H   0  0  0  0  0  0  0  0  0  0  0  0
  122.2644  119.2360   86.6042 H   0  0  0  0  0  0  0  0  0  0  0  0
  123.5051  120.4857   89.1738 H   0  0  0  0  0  0  0  0  0  0  0  0
  126.1869  123.3148   87.2714 H   0  0  0  0  0  0  0  0  0  0  0  0
  124.4239  123.8590   85.5873 H   0  0  0  0  0  0  0  0  0  0  0  0
  121.0369  123.0375   85.9378 H   0  0  0  0  0  0  0  0  0  0  0  0
  1  2  1  0
  2  3  1  0
  3  4  2  0
  4  5  1  0
  5  6  1  0
  6  7  2  0
  6  8  1  0
  5  9  2  0
  9 10  1  0
 10 11  2  0
 11 12  1  0
 12 13  1  0
 13 14  2  0
 13 15  1  0
 15 16  1  0
 15 17  1  0
 15 18  1  0
 11  3  1  0
  1 19  1  0
  1 20  1  0
  1 21  1  0
  4 22  1  0
  9 23  1  0
 10 24  1  0
 12 25  1  0
M  CHG  2   6   1   8  -1
M  END
>  <loss>  (18) 
0.6956018805503845

>  <score>  (18) 
3.066070795059204

$$$$
ZNPYZUWOLOJVPJ-UHFFFAOYSA-N
     RDKit          3D

 25 25  0  0  0  0  0  0  0  0999 V2000
  121.3489  119.6712   87.0629 C   0  0  0  0  0  0  0  0  0  0  0  0
  121.4758  121.0760   87.2593 O   0  0  0  0  0  0  0  0  0  0  0  0
  122.7506  121.5885   87.3482 C   0  0  0  0  0  0  0  0  0  0  0  0
  123.6786  121.2551   88.3383 C   0  0  0  0  0  0  0  0  0  0  0  0
  124.9489  121.8486   88.3184 C   0  0  0  0  0  0  0  0  0  0  0  0
  125.9278  121.5013   89.3573 N   0  0  0  0  0  4  0  0  0  0  0  0
  125.8156  120.3952   89.9051 O   0  0  0  0  0  0  0  0  0  0  0  0
  126.8063  122.3325   89.6243 O   0  0  0  0  0  1  0  0  0  0  0  0
  125.2947  122.7671   87.3215 C   0  0  0  0  0  0  0  0  0  0  0  0
  124.3638  123.0981   86.3326 C   0  0  0  0  0  0  0  0  0  0  0  0
  123.0936  122.5165   86.3370 C   0  0  0  0  0  0  0  0  0  0  0  0
  122.0964  122.7958   85.3768 N   0  0  0  0  0  0  0  0  0  0  0  0
  122.1442  122.6369   83.9916 C   0  0  0  0  0  0  0  0  0  0  0  0
  122.9992  121.9638   83.4147 O   0  0  0  0  0  0  0  0  0  0  0  0
  121.0180  123.3935   83.2373 C   0  0  0  0  0  0  0  0  0  0  0  0
  121.5048  123.7909   81.5740 Cl  0  0  0  0  0  0  0  0  0  0  0  0
  120.6518  124.8985   84.1311 Cl  0  0  0  0  0  0  0  0  0  0  0  0
  119.5607  122.3571   83.2027 Cl  0  0  0  0  0  0  0  0  0  0  0  0
  121.3033  119.1671   88.0396 H   0  0  0  0  0  0  0  0  0  0  0  0
  120.4281  119.4616   86.4988 H   0  0  0  0  0  0  0  0  0  0  0  0
  122.2171  119.2999   86.4988 H   0  0  0  0  0  0  0  0  0  0  0  0
  123.4150  120.5339   89.1259 H   0  0  0  0  0  0  0  0  0  0  0  0
  126.2941  123.2264   87.3158 H   0  0  0  0  0  0  0  0  0  0  0  0
  124.6326  123.8200   85.5474 H   0  0  0  0  0  0  0  0  0  0  0  0
  121.2119  123.1682   85.7507 H   0  0  0  0  0  0  0  0  0  0  0  0
  1  2  1  0
  2  3  1  0
  3  4  2  0
  4  5  1  0
  5  6  1  0
  6  7  2  0
  6  8  1  0
  5  9  2  0
  9 10  1  0
 10 11  2  0
 11 12  1  0
 12 13  1  0
 13 14  2  0
 13 15  1  0
 15 16  1  0
 15 17  1  0
 15 18  1  0
 11  3  1  0
  1 19  1  0
  1 20  1  0
  1 21  1  0
  4 22  1  0
  9 23  1  0
 10 24  1  0
 12 25  1  0
M  CHG  2   6   1   8  -1
M  END
>  <loss>  (19) 
0.6851854920387268

>  <score>  (19) 
3.0060813426971436

$$$$
ZNPYZUWOLOJVPJ-UHFFFAOYSA-N
     RDKit          3D

 25 25  0  0  0  0  0  0  0  0999 V2000
  121.3437  119.6687   87.0511 C   0  0  0  0  0  0  0  0  0  0  0  0
  121.4692  121.0726   87.2548 O   0  0  0  0  0  0  0  0  0  0  0  0
  122.7434  121.5858   87.3464 C   0  0  0  0  0  0  0  0  0  0  0  0
  123.6708  121.2503   88.3363 C   0  0  0  0  0  0  0  0  0  0  0  0
  124.9406  121.8449   88.3194 C   0  0  0  0  0  0  0  0  0  0  0  0
  125.9189  121.4952   89.3581 N   0  0  0  0  0  4  0  0  0  0  0  0
  125.8035  120.3898   89.9067 O   0  0  0  0  0  0  0  0  0  0  0  0
  126.8001  122.3239   89.6243 O   0  0  0  0  0  1  0  0  0  0  0  0
  125.2866  122.7666   87.3256 C   0  0  0  0  0  0  0  0  0  0  0  0
  124.3563  123.0999   86.3369 C   0  0  0  0  0  0  0  0  0  0  0  0
  123.0866  122.5173   86.3383 C   0  0  0  0  0  0  0  0  0  0  0  0
  122.0902  122.7984   85.3780 N   0  0  0  0  0  0  0  0  0  0  0  0
  122.1388  122.6418   83.9926 C   0  0  0  0  0  0  0  0  0  0  0  0
  122.9961  121.9724   83.4149 O   0  0  0  0  0  0  0  0  0  0  0  0
  121.0071  123.3914   83.2395 C   0  0  0  0  0  0  0  0  0  0  0  0
  119.5541  122.3491   83.2179 Cl  0  0  0  0  0  0  0  0  0  0  0  0
  121.4853  123.7818   81.5720 Cl  0  0  0  0  0  0  0  0  0  0  0  0
  120.6388  124.9005   84.1258 Cl  0  0  0  0  0  0  0  0  0  0  0  0
  121.2981  119.1596   88.0252 H   0  0  0  0  0  0  0  0  0  0  0  0
  120.4234  119.4611   86.4855 H   0  0  0  0  0  0  0  0  0  0  0  0
  122.2125  119.3011   86.4855 H   0  0  0  0  0  0  0  0  0  0  0  0
  123.4072  120.5265   89.1216 H   0  0  0  0  0  0  0  0  0  0  0  0
  126.2857  123.2268   87.3222 H   0  0  0  0  0  0  0  0  0  0  0  0
  124.6253  123.8243   85.5541 H   0  0  0  0  0  0  0  0  0  0  0  0
  121.2055  123.1705   85.7519 H   0  0  0  0  0  0  0  0  0  0  0  0
  1  2  1  0
  2  3  1  0
  3  4  2  0
  4  5  1  0
  5  6  1  0
  6  7  2  0
  6  8  1  0
  5  9  2  0
  9 10  1  0
 10 11  2  0
 11 12  1  0
 12 13  1  0
 13 14  2  0
 13 15  1  0
 15 16  1  0
 15 17  1  0
 15 18  1  0
 11  3  1  0
  1 19  1  0
  1 20  1  0
  1 21  1  0
  4 22  1  0
  9 23  1  0
 10 24  1  0
 12 25  1  0
M  CHG  2   6   1   8  -1
M  END
>  <loss>  (20) 
0.6851762533187866

>  <score>  (20) 
2.95890474319458

$$$$
ZNPYZUWOLOJVPJ-UHFFFAOYSA-N
     RDKit          3D

 25 25  0  0  0  0  0  0  0  0999 V2000
  121.3869  119.5590   87.1632 C   0  0  0  0  0  0  0  0  0  0  0  0
  121.4608  120.9646   87.3797 O   0  0  0  0  0  0  0  0  0  0  0  0
  122.7151  121.5287   87.4434 C   0  0  0  0  0  0  0  0  0  0  0  0
  123.6880  121.2084   88.3939 C   0  0  0  0  0  0  0  0  0  0  0  0
  124.9309  121.8561   88.3514 C   0  0  0  0  0  0  0  0  0  0  0  0
  125.9568  121.5227   89.3486 N   0  0  0  0  0  4  0  0  0  0  0  0
  125.9186  120.3925   89.8558 O   0  0  0  0  0  0  0  0  0  0  0  0
  126.7983  122.3889   89.6237 O   0  0  0  0  0  1  0  0  0  0  0  0
  125.2053  122.8155   87.3709 C   0  0  0  0  0  0  0  0  0  0  0  0
  124.2297  123.1334   86.4217 C   0  0  0  0  0  0  0  0  0  0  0  0
  122.9858  122.4980   86.4491 C   0  0  0  0  0  0  0  0  0  0  0  0
  121.9472  122.7603   85.5289 N   0  0  0  0  0  0  0  0  0  0  0  0
  121.9617  122.6568   84.1377 C   0  0  0  0  0  0  0  0  0  0  0  0
  122.8303  122.0487   83.5113 O   0  0  0  0  0  0  0  0  0  0  0  0
  120.7759  123.3813   83.4455 C   0  0  0  0  0  0  0  0  0  0  0  0
  119.2508  122.6341   84.0059 Cl  0  0  0  0  0  0  0  0  0  0  0  0
  120.8847  123.2579   81.6751 Cl  0  0  0  0  0  0  0  0  0  0  0  0
  120.8031  125.1030   83.9288 Cl  0  0  0  0  0  0  0  0  0  0  0  0
  121.3597  119.0397   88.1325 H   0  0  0  0  0  0  0  0  0  0  0  0
  120.4752  119.3230   86.5950 H   0  0  0  0  0  0  0  0  0  0  0  0
  122.2690  119.2287   86.5950 H   0  0  0  0  0  0  0  0  0  0  0  0
  123.4807  120.4552   89.1684 H   0  0  0  0  0  0  0  0  0  0  0  0
  126.1839  123.3173   87.3471 H   0  0  0  0  0  0  0  0  0  0  0  0
  124.4423  123.8873   85.6495 H   0  0  0  0  0  0  0  0  0  0  0  0
  121.0562  123.0709   85.9417 H   0  0  0  0  0  0  0  0  0  0  0  0
  1  2  1  0
  2  3  1  0
  3  4  2  0
  4  5  1  0
  5  6  1  0
  6  7  2  0
  6  8  1  0
  5  9  2  0
  9 10  1  0
 10 11  2  0
 11 12  1  0
 12 13  1  0
 13 14  2  0
 13 15  1  0
 15 16  1  0
 15 17  1  0
 15 18  1  0
 11  3  1  0
  1 19  1  0
  1 20  1  0
  1 21  1  0
  4 22  1  0
  9 23  1  0
 10 24  1  0
 12 25  1  0
M  CHG  2   6   1   8  -1
M  END
>  <loss>  (21) 
0.693492591381073

>  <score>  (21) 
2.9176905155181885

$$$$
ZNPYZUWOLOJVPJ-UHFFFAOYSA-N
     RDKit          3D

 25 25  0  0  0  0  0  0  0  0999 V2000
  121.4179  119.5275   87.1331 C   0  0  0  0  0  0  0  0  0  0  0  0
  121.4768  120.9322   87.3593 O   0  0  0  0  0  0  0  0  0  0  0  0
  122.7252  121.5085   87.4303 C   0  0  0  0  0  0  0  0  0  0  0  0
  123.6996  121.1899   88.3798 C   0  0  0  0  0  0  0  0  0  0  0  0
  124.9359  121.8507   88.3452 C   0  0  0  0  0  0  0  0  0  0  0  0
  125.9634  121.5190   89.3413 N   0  0  0  0  0  4  0  0  0  0  0  0
  125.9073  120.4012   89.8737 O   0  0  0  0  0  0  0  0  0  0  0  0
  126.8241  122.3742   89.5904 O   0  0  0  0  0  1  0  0  0  0  0  0
  125.2021  122.8215   87.3738 C   0  0  0  0  0  0  0  0  0  0  0  0
  124.2249  123.1377   86.4256 C   0  0  0  0  0  0  0  0  0  0  0  0
  122.9876  122.4893   86.4451 C   0  0  0  0  0  0  0  0  0  0  0  0
  121.9480  122.7492   85.5254 N   0  0  0  0  0  0  0  0  0  0  0  0
  121.9603  122.6401   84.1346 C   0  0  0  0  0  0  0  0  0  0  0  0
  122.8275  122.0287   83.5094 O   0  0  0  0  0  0  0  0  0  0  0  0
  120.7743  123.3630   83.4413 C   0  0  0  0  0  0  0  0  0  0  0  0
  120.9048  123.2718   81.6704 Cl  0  0  0  0  0  0  0  0  0  0  0  0
  119.2515  122.5890   83.9707 Cl  0  0  0  0  0  0  0  0  0  0  0  0
  120.7761  125.0762   83.9546 Cl  0  0  0  0  0  0  0  0  0  0  0  0
  121.3958  119.0012   88.0988 H   0  0  0  0  0  0  0  0  0  0  0  0
  120.5088  119.2857   86.5629 H   0  0  0  0  0  0  0  0  0  0  0  0
  122.3035  119.2104   86.5629 H   0  0  0  0  0  0  0  0  0  0  0  0
  123.4987  120.4278   89.1471 H   0  0  0  0  0  0  0  0  0  0  0  0
  126.1756  123.3335   87.3563 H   0  0  0  0  0  0  0  0  0  0  0  0
  124.4312  123.9006   85.6604 H   0  0  0  0  0  0  0  0  0  0  0  0
  121.0579  123.0624   85.9383 H   0  0  0  0  0  0  0  0  0  0  0  0
  1  2  1  0
  2  3  1  0
  3  4  2  0
  4  5  1  0
  5  6  1  0
  6  7  2  0
  6  8  1  0
  5  9  2  0
  9 10  1  0
 10 11  2  0
 11 12  1  0
 12 13  1  0
 13 14  2  0
 13 15  1  0
 15 16  1  0
 15 17  1  0
 15 18  1  0
 11  3  1  0
  1 19  1  0
  1 20  1  0
  1 21  1  0
  4 22  1  0
  9 23  1  0
 10 24  1  0
 12 25  1  0
M  CHG  2   6   1   8  -1
M  END
>  <loss>  (22) 
0.6935439109802246

>  <score>  (22) 
2.3941400051116943

$$$$
ZNPYZUWOLOJVPJ-UHFFFAOYSA-N
     RDKit          3D

 25 25  0  0  0  0  0  0  0  0999 V2000
  121.4257  119.5163   87.1403 C   0  0  0  0  0  0  0  0  0  0  0  0
  121.4803  120.9222   87.3602 O   0  0  0  0  0  0  0  0  0  0  0  0
  122.7269  121.5022   87.4322 C   0  0  0  0  0  0  0  0  0  0  0  0
  123.7026  121.1842   88.3806 C   0  0  0  0  0  0  0  0  0  0  0  0
  124.9368  121.8488   88.3473 C   0  0  0  0  0  0  0  0  0  0  0  0
  125.9656  121.5179   89.3423 N   0  0  0  0  0  4  0  0  0  0  0  0
  125.9150  120.3975   89.8697 O   0  0  0  0  0  0  0  0  0  0  0  0
  126.8219  122.3764   89.5955 O   0  0  0  0  0  1  0  0  0  0  0  0
  125.1998  122.8228   87.3781 C   0  0  0  0  0  0  0  0  0  0  0  0
  124.2214  123.1382   86.4309 C   0  0  0  0  0  0  0  0  0  0  0  0
  122.9861  122.4861   86.4492 C   0  0  0  0  0  0  0  0  0  0  0  0
  121.9454  122.7449   85.5304 N   0  0  0  0  0  0  0  0  0  0  0  0
  121.9569  122.6369   84.1396 C   0  0  0  0  0  0  0  0  0  0  0  0
  122.8246  122.0273   83.5133 O   0  0  0  0  0  0  0  0  0  0  0  0
  120.7693  123.3586   83.4476 C   0  0  0  0  0  0  0  0  0  0  0  0
  120.8958  123.2641   81.6766 Cl  0  0  0  0  0  0  0  0  0  0  0  0
  119.2477  122.5856   83.9819 Cl  0  0  0  0  0  0  0  0  0  0  0  0
  120.7724  125.0727   83.9578 Cl  0  0  0  0  0  0  0  0  0  0  0  0
  121.4055  118.9943   88.1084 H   0  0  0  0  0  0  0  0  0  0  0  0
  120.5173  119.2691   86.5714 H   0  0  0  0  0  0  0  0  0  0  0  0
  122.3122  119.1994   86.5714 H   0  0  0  0  0  0  0  0  0  0  0  0
  123.5042  120.4197   89.1462 H   0  0  0  0  0  0  0  0  0  0  0  0
  126.1717  123.3378   87.3615 H   0  0  0  0  0  0  0  0  0  0  0  0
  124.4251  123.9036   85.6675 H   0  0  0  0  0  0  0  0  0  0  0  0
  121.0551  123.0565   85.9442 H   0  0  0  0  0  0  0  0  0  0  0  0
  1  2  1  0
  2  3  1  0
  3  4  2  0
  4  5  1  0
  5  6  1  0
  6  7  2  0
  6  8  1  0
  5  9  2  0
  9 10  1  0
 10 11  2  0
 11 12  1  0
 12 13  1  0
 13 14  2  0
 13 15  1  0
 15 16  1  0
 15 17  1  0
 15 18  1  0
 11  3  1  0
  1 19  1  0
  1 20  1  0
  1 21  1  0
  4 22  1  0
  9 23  1  0
 10 24  1  0
 12 25  1  0
M  CHG  2   6   1   8  -1
M  END
>  <loss>  (23) 
0.6934805512428284

>  <score>  (23) 
2.2969937324523926

$$$$
ZNPYZUWOLOJVPJ-UHFFFAOYSA-N
     RDKit          3D

 25 25  0  0  0  0  0  0  0  0999 V2000
  121.4380  119.5411   87.0689 C   0  0  0  0  0  0  0  0  0  0  0  0
  121.4869  120.9482   87.2827 O   0  0  0  0  0  0  0  0  0  0  0  0
  122.7312  121.5317   87.3641 C   0  0  0  0  0  0  0  0  0  0  0  0
  123.7002  121.2172   88.3206 C   0  0  0  0  0  0  0  0  0  0  0  0
  124.9329  121.8852   88.2966 C   0  0  0  0  0  0  0  0  0  0  0  0
  125.9546  121.5580   89.3001 N   0  0  0  0  0  4  0  0  0  0  0  0
  126.9426  122.3004   89.3821 O   0  0  0  0  0  0  0  0  0  0  0  0
  125.7662  120.5567   90.0058 O   0  0  0  0  0  1  0  0  0  0  0  0
  125.2009  122.8590   87.3287 C   0  0  0  0  0  0  0  0  0  0  0  0
  124.2292  123.1710   86.3734 C   0  0  0  0  0  0  0  0  0  0  0  0
  122.9956  122.5155   86.3824 C   0  0  0  0  0  0  0  0  0  0  0  0
  121.9617  122.7705   85.4550 N   0  0  0  0  0  0  0  0  0  0  0  0
  121.9846  122.6605   84.0644 C   0  0  0  0  0  0  0  0  0  0  0  0
  122.8741  122.0765   83.4443 O   0  0  0  0  0  0  0  0  0  0  0  0
  120.7753  123.3371   83.3646 C   0  0  0  0  0  0  0  0  0  0  0  0
  119.3282  122.3223   83.6351 Cl  0  0  0  0  0  0  0  0  0  0  0  0
  120.5155  124.9458   84.1024 Cl  0  0  0  0  0  0  0  0  0  0  0  0
  121.0571  123.5232   81.6189 Cl  0  0  0  0  0  0  0  0  0  0  0  0
  121.4200  119.0233   88.0392 H   0  0  0  0  0  0  0  0  0  0  0  0
  120.5305  119.2878   86.5012 H   0  0  0  0  0  0  0  0  0  0  0  0
  122.3257  119.2255   86.5012 H   0  0  0  0  0  0  0  0  0  0  0  0
  123.4979  120.4528   89.0853 H   0  0  0  0  0  0  0  0  0  0  0  0
  126.1715  123.3766   87.3194 H   0  0  0  0  0  0  0  0  0  0  0  0
  124.4370  123.9362   85.6110 H   0  0  0  0  0  0  0  0  0  0  0  0
  121.0673  123.0805   85.8611 H   0  0  0  0  0  0  0  0  0  0  0  0
  1  2  1  0
  2  3  1  0
  3  4  2  0
  4  5  1  0
  5  6  1  0
  6  7  2  0
  6  8  1  0
  5  9  2  0
  9 10  1  0
 10 11  2  0
 11 12  1  0
 12 13  1  0
 13 14  2  0
 13 15  1  0
 15 16  1  0
 15 17  1  0
 15 18  1  0
 11  3  1  0
  1 19  1  0
  1 20  1  0
  1 21  1  0
  4 22  1  0
  9 23  1  0
 10 24  1  0
 12 25  1  0
M  CHG  2   6   1   8  -1
M  END
>  <loss>  (24) 
0.6990467309951782

>  <score>  (24) 
2.041018486022949

$$$$
ZNPYZUWOLOJVPJ-UHFFFAOYSA-N
     RDKit          3D

 25 25  0  0  0  0  0  0  0  0999 V2000
  121.4583  119.5220   87.0558 C   0  0  0  0  0  0  0  0  0  0  0  0
  121.5011  120.9297   87.2667 O   0  0  0  0  0  0  0  0  0  0  0  0
  122.7429  121.5183   87.3493 C   0  0  0  0  0  0  0  0  0  0  0  0
  123.7130  121.2066   88.3056 C   0  0  0  0  0  0  0  0  0  0  0  0
  124.9428  121.8799   88.2829 C   0  0  0  0  0  0  0  0  0  0  0  0
  125.9656  121.5556   89.2862 N   0  0  0  0  0  4  0  0  0  0  0  0
  126.9575  122.2938   89.3597 O   0  0  0  0  0  0  0  0  0  0  0  0
  125.7743  120.5609   90.0004 O   0  0  0  0  0  1  0  0  0  0  0  0
  125.2070  122.8561   87.3163 C   0  0  0  0  0  0  0  0  0  0  0  0
  124.2343  123.1652   86.3612 C   0  0  0  0  0  0  0  0  0  0  0  0
  123.0034  122.5045   86.3690 C   0  0  0  0  0  0  0  0  0  0  0  0
  121.9687  122.7564   85.4416 N   0  0  0  0  0  0  0  0  0  0  0  0
  122.0015  122.6788   84.0491 C   0  0  0  0  0  0  0  0  0  0  0  0
  122.9034  122.1227   83.4213 O   0  0  0  0  0  0  0  0  0  0  0  0
  120.7862  123.3531   83.3574 C   0  0  0  0  0  0  0  0  0  0  0  0
  119.3447  122.3310   83.6302 Cl  0  0  0  0  0  0  0  0  0  0  0  0
  120.5229  124.9577   84.1029 Cl  0  0  0  0  0  0  0  0  0  0  0  0
  121.0594  123.5474   81.6112 Cl  0  0  0  0  0  0  0  0  0  0  0  0
  121.4426  119.0060   88.0271 H   0  0  0  0  0  0  0  0  0  0  0  0
  120.5518  119.2636   86.4887 H   0  0  0  0  0  0  0  0  0  0  0  0
  122.3473  119.2090   86.4887 H   0  0  0  0  0  0  0  0  0  0  0  0
  123.5136  120.4403   89.0692 H   0  0  0  0  0  0  0  0  0  0  0  0
  126.1753  123.3779   87.3080 H   0  0  0  0  0  0  0  0  0  0  0  0
  124.4390  123.9324   85.5999 H   0  0  0  0  0  0  0  0  0  0  0  0
  121.0652  123.0360   85.8495 H   0  0  0  0  0  0  0  0  0  0  0  0
  1  2  1  0
  2  3  1  0
  3  4  2  0
  4  5  1  0
  5  6  1  0
  6  7  2  0
  6  8  1  0
  5  9  2  0
  9 10  1  0
 10 11  2  0
 11 12  1  0
 12 13  1  0
 13 14  2  0
 13 15  1  0
 15 16  1  0
 15 17  1  0
 15 18  1  0
 11  3  1  0
  1 19  1  0
  1 20  1  0
  1 21  1  0
  4 22  1  0
  9 23  1  0
 10 24  1  0
 12 25  1  0
M  CHG  2   6   1   8  -1
M  END
>  <loss>  (25) 
0.6989819407463074

>  <score>  (25) 
1.7223107814788818

$$$$
